Check Keywords Warn

Header
Mesh DB "." "RichardsDyke"
Include Path "."
Results Directory ""
End

Simulation
  Coordinate System = "Cartesian 2D"

  Simulation Type = "Steady"
  Coordinate Mapping(3) = 1 2 3
  Steady State Max Iterations = 1
  Output Intervals = 1
  Solver Input File =  "htest.sif"
  Output File = "HeVel.dat"
  Post File = "HeVel.ep"
End

! ~~
! Constants
! ~~
Constants
 Gravity(4) = 0 -1 0 9.780000e+00
End

! ~~
! Body
! ~~
Body 4
  Name = "body4"
  Equation = 1
  Material = 4
End

Body 6
  Name = "body6"
  Equation = 1
  Material = 6
End

Body 1
  Equation = 1 
  Material = 1
  Initial Condition = 1
  Body Force = 1
End

! ~~
! Material p29 ref. Manual
! ~~
Material 1
  Water Density = Real 1.0000000000e+03
  Viscosity = Real 1.0000000000e+00
  Hydr Conductivity = Real 5.0000000000e-07
  Saturated Hydraulic Conductivity = Real 5.0000000000e-07
  Specific Storage = Real 1.0000000000e+00
  Porosity = Real 1.0000000000e+00
  Compressibility Model = Incompressible
  !~~~~~~~~~~~~
  !~ saturation: exponential
  !~~~~~~~~~~~~
  Porosity Model = "exponential"
  exp Alpha = 100.0
  exp N = 2.0
  exp C = 0.1
  Residual Water Content = 0.23
  Saturated Water Content = 0.55
End

Material 3
  Water Density = Real 1.0000000000e+03
  Viscosity = Real 1.0000000000e+00
  Hydr Conductivity = Real 5.0000000000e-07
  Saturated Hydraulic Conductivity = Real 5.0000000000e-07
  Specific Storage = Real 1.0000000000e+00
  Porosity = Real 1.0000000000e+00
  Compressibility Model = Incompressible
  !~~~~~~~~~~~~
  !~ saturation: exponential
  !~~~~~~~~~~~~
  Porosity Model = "exponential"
  exp Alpha = 100.0
  exp N = 2.0
  exp C = 0.1
  Residual Water Content = 0.23
  Saturated Water Content = 0.55
End

Material 7
  Water Density = Real 1.0000000000e+03
  Viscosity = Real 1.0000000000e+00
  Hydr Conductivity = Real 5.0000000000e-07
  Saturated Hydraulic Conductivity = Real 5.0000000000e-07
  Specific Storage = Real 1.0000000000e+00
  Porosity = Real 1.0000000000e+00
  Compressibility Model = Incompressible
  !~~~~~~~~~~~~
  !~ saturation: exponential
  !~~~~~~~~~~~~
  Porosity Model = "exponential"
  exp Alpha = 100.0
  exp N = 2.0
  exp C = 0.1
  Residual Water Content = 0.23
  Saturated Water Content = 0.55
End

Material 4
  Water Density = Real 1.0000000000e+03
  Viscosity = Real 1.0000000000e+00
  Hydr Conductivity = Real 5.0000000000e-07
  Saturated Hydraulic Conductivity = Real 5.0000000000e-07
  Specific Storage = Real 1.0000000000e+00
  Porosity = Real 1.0000000000e+00
  Compressibility Model = Incompressible
  !~~~~~~~~~~~~
  !~ saturation: exponential
  !~~~~~~~~~~~~
  Porosity Model = "exponential"
  exp Alpha = 100.0
  exp N = 2.0
  exp C = 0.1
  Residual Water Content = 0.23
  Saturated Water Content = 0.55
End

Material 6
  Water Density = Real 1.0000000000e+03
  Viscosity = Real 1.0000000000e+00
  Hydr Conductivity = Real 5.0000000000e-07
  Saturated Hydraulic Conductivity = Real 5.0000000000e-07
  Specific Storage = Real 1.0000000000e+00
  Porosity = Real 1.0000000000e+00
  Compressibility Model = Incompressible
  !~~~~~~~~~~~~
  !~ saturation: exponential
  !~~~~~~~~~~~~
  Porosity Model = "exponential"
  exp Alpha = 100.0
  exp N = 2.0
  exp C = 0.1
  Residual Water Content = 0.23
  Saturated Water Content = 0.55
End

Material 2
  Water Density = Real 1.0000000000e+03
  Viscosity = Real 1.0000000000e+00
  Hydr Conductivity = Real 5.0000000000e-07
  Saturated Hydraulic Conductivity = Real 5.0000000000e-07
  Specific Storage = Real 1.0000000000e+00
  Porosity = Real 1.0000000000e+00
  Compressibility Model = Incompressible
  !~~~~~~~~~~~~
  !~ saturation: exponential
  !~~~~~~~~~~~~
  Porosity Model = "exponential"
  exp Alpha = 100.0
  exp N = 2.0
  exp C = 0.1
  Residual Water Content = 0.23
  Saturated Water Content = 0.55
End

! ~~
! Equation p28 ref. Manual
! ~~

Equation 1
  Active Solvers(2) = 1 2
End

! ~~
! Solver p27 ref. Manual
! ~~
Solver 1
  Exec Solver = "Always"
  Equation = "WRichardsSolver"
  Procedure = File "WRichardsSolver" "WRichardsSolver"
  Variable = Total Head
!  Discontinuous Galerkin = Logical True ! not operational yet
! Uses saturated conditions (pure Darcy flow) for the 1st iteration
  Saturated Initial Guess = True
  Linear System Solver = "Iterative"
  Linear System Iterative Method = "BiCGStab"
  Linear System Max Iterations = 100
  Linear System Convergence Tolerance = 1.000000e-15
  Linear System Preconditioning = "ILU0"
  Steady State Convergence Tolerance = 1e-08
  Stabilize = True
  Namespace = string "Total Head"
  Nonlinear System Max Iterations = 101
  Nonlinear System Convergence Tolerance = 1.1e-06
  Nonlinear System Convergence Measure = solution
  Nonlinear System Relaxation Factor = 1.0
End

Solver 2
  Equation = RichardsFlux
  Procedure = "WRichardsSolver" "WRichardsPostprocess"
  Linear System Convergence Tolerance = 1.000000e-15
  Flux Multiplier = Real 1e-09
End

! ~~
! Material p29 ref. Manual
! ~~
! WetRight
Boundary Condition 101
  Target Boundaries (1) = 4
! Total Head
  Total Head = Real 6.000000e+00
 End

! WetLeft
Boundary Condition 102
  Target Boundaries (1) = 6
! Total Head
  Total Head = Real 8.500000e+00
 End

! ~~
! initial condition p8 ref. ElmersolverManual
! ~~
Initial Condition 1
  Charge = Real 1.000000e+00
End
