Check Keywords Warn

Header
Mesh DB "." "benchmark"
Include Path "." 
Results Directory ""
End

Simulation
  Coordinate System = Cartesian 3D

  Simulation Type = transient
  Coordinate Mapping(3) = 1 2 3
  Timestepping Method = BDF
  BDF Order = 1
  Solver Input File = test.sif
  Timestep Sizes = 100
  Timestep Intervals = 5

  Output Intervals = 1
!  Lumped Mass Matrix = False
  Max Output Level = 3
End

! ~~
! Constants
! ~~
Constants
 Gravity(4) = 0 -1 0 9.780000e+00
End

! ~~
! Body
! ~~
Body 1
  Name = "body1"
  Equation = 1
  Material = 1
End

Body 2
  Name = "body2"
  Equation = 1
  Material = 2
End

Body 3
  Equation = 1 
  Material = 3
  Initial Condition = 3
  Body Force = 1
End

Body 4
  Equation = 1 
  Material = 4
  Initial Condition = 4
  Body Force = 1
End

Body 5
  Equation = 1 
  Material = 5
  Initial Condition = 5
  Body Force = 1
End

! ~~
! Material p29 ref. Manual
! ~~
Material 3
 Density = Real 1.0000000000e+03
 Water Density = Real 1.0000000000e+03
 Viscosity = Real 1.0000000000e+00
 Porosity = Real 1.0000000000e+00
 Compressibility Model = Incompressible
 CB Diffusivity
     Size 3 3
      Real    1.0000000000e-09 0.0000000000e+00 0.0000000000e+00\
              0.0000000000e+00 1.0000000000e-09 0.0000000000e+00\
              0.0000000000e+00 0.0000000000e+00 1.0000000000e-09\
 End

 TH Diffusivity
     Size 3 3
      Real    1.0000000000e-09 0.0000000000e+00 0.0000000000e+00\
              0.0000000000e+00 1.0000000000e-09 0.0000000000e+00\
              0.0000000000e+00 0.0000000000e+00 1.0000000000e-09\
 End

 TO Diffusivity
     Size 3 3
      Real    1.0000000000e-09 0.0000000000e+00 0.0000000000e+00\
              0.0000000000e+00 1.0000000000e-09 0.0000000000e+00\
              0.0000000000e+00 0.0000000000e+00 1.0000000000e-09\
 End

 C Diffusivity
     Size 3 3
      Real    1.0000000000e-09 0.0000000000e+00 0.0000000000e+00\
              0.0000000000e+00 1.0000000000e-09 0.0000000000e+00\
              0.0000000000e+00 0.0000000000e+00 1.0000000000e-09\
 End

 CA Diffusivity
     Size 3 3
      Real    1.0000000000e-09 0.0000000000e+00 0.0000000000e+00\
              0.0000000000e+00 1.0000000000e-09 0.0000000000e+00\
              0.0000000000e+00 0.0000000000e+00 1.0000000000e-09\
 End

 CL Diffusivity
     Size 3 3
      Real    1.0000000000e-09 0.0000000000e+00 0.0000000000e+00\
              0.0000000000e+00 1.0000000000e-09 0.0000000000e+00\
              0.0000000000e+00 0.0000000000e+00 1.0000000000e-09\
 End

 NA Diffusivity
     Size 3 3
      Real    1.0000000000e-09 0.0000000000e+00 0.0000000000e+00\
              0.0000000000e+00 1.0000000000e-09 0.0000000000e+00\
              0.0000000000e+00 0.0000000000e+00 1.0000000000e-09\
 End

 SI Diffusivity
     Size 3 3
      Real    1.0000000000e-09 0.0000000000e+00 0.0000000000e+00\
              0.0000000000e+00 1.0000000000e-09 0.0000000000e+00\
              0.0000000000e+00 0.0000000000e+00 1.0000000000e-09\
 End

 Long Dispersivity = Real 1.5000000000e+00
 Tran Dispersivity = Real 1.5000000000e+00
 Convection Velocity 1 = 0.000000e+00
 Convection Velocity 2 = 0.000000e+00
 Convection Velocity 3 = 0.000000e+00

End

Material 4
 Density = Real 1.0000000000e+03
 Water Density = Real 1.0000000000e+03
 Viscosity = Real 1.0000000000e+00
 Porosity = Real 1.0000000000e+00
 Compressibility Model = Incompressible
 CB Diffusivity
     Size 3 3
      Real    1.0000000000e-09 0.0000000000e+00 0.0000000000e+00\
              0.0000000000e+00 1.0000000000e-09 0.0000000000e+00\
              0.0000000000e+00 0.0000000000e+00 1.0000000000e-09\
 End

 TH Diffusivity
     Size 3 3
      Real    1.0000000000e-09 0.0000000000e+00 0.0000000000e+00\
              0.0000000000e+00 1.0000000000e-09 0.0000000000e+00\
              0.0000000000e+00 0.0000000000e+00 1.0000000000e-09\
 End

 TO Diffusivity
     Size 3 3
      Real    1.0000000000e-09 0.0000000000e+00 0.0000000000e+00\
              0.0000000000e+00 1.0000000000e-09 0.0000000000e+00\
              0.0000000000e+00 0.0000000000e+00 1.0000000000e-09\
 End

 C Diffusivity
     Size 3 3
      Real    1.0000000000e-09 0.0000000000e+00 0.0000000000e+00\
              0.0000000000e+00 1.0000000000e-09 0.0000000000e+00\
              0.0000000000e+00 0.0000000000e+00 1.0000000000e-09\
 End

 CA Diffusivity
     Size 3 3
      Real    1.0000000000e-09 0.0000000000e+00 0.0000000000e+00\
              0.0000000000e+00 1.0000000000e-09 0.0000000000e+00\
              0.0000000000e+00 0.0000000000e+00 1.0000000000e-09\
 End

 CL Diffusivity
     Size 3 3
      Real    1.0000000000e-09 0.0000000000e+00 0.0000000000e+00\
              0.0000000000e+00 1.0000000000e-09 0.0000000000e+00\
              0.0000000000e+00 0.0000000000e+00 1.0000000000e-09\
 End

 NA Diffusivity
     Size 3 3
      Real    1.0000000000e-09 0.0000000000e+00 0.0000000000e+00\
              0.0000000000e+00 1.0000000000e-09 0.0000000000e+00\
              0.0000000000e+00 0.0000000000e+00 1.0000000000e-09\
 End

 SI Diffusivity
     Size 3 3
      Real    1.0000000000e-09 0.0000000000e+00 0.0000000000e+00\
              0.0000000000e+00 1.0000000000e-09 0.0000000000e+00\
              0.0000000000e+00 0.0000000000e+00 1.0000000000e-09\
 End

 Long Dispersivity = Real 1.5000000000e+00
 Tran Dispersivity = Real 1.5000000000e+00
 Convection Velocity 1 = 0.000000e+00
 Convection Velocity 2 = 0.000000e+00
 Convection Velocity 3 = 0.000000e+00

End

Material 5
 Density = Real 1.0000000000e+03
 Water Density = Real 1.0000000000e+03
 Viscosity = Real 1.0000000000e+00
 Porosity = Real 1.0000000000e+00
 Compressibility Model = Incompressible
 CB Diffusivity
     Size 3 3
      Real    1.0000000000e-09 0.0000000000e+00 0.0000000000e+00\
              0.0000000000e+00 1.0000000000e-09 0.0000000000e+00\
              0.0000000000e+00 0.0000000000e+00 1.0000000000e-09\
 End

 TH Diffusivity
     Size 3 3
      Real    1.0000000000e-09 0.0000000000e+00 0.0000000000e+00\
              0.0000000000e+00 1.0000000000e-09 0.0000000000e+00\
              0.0000000000e+00 0.0000000000e+00 1.0000000000e-09\
 End

 TO Diffusivity
     Size 3 3
      Real    1.0000000000e-09 0.0000000000e+00 0.0000000000e+00\
              0.0000000000e+00 1.0000000000e-09 0.0000000000e+00\
              0.0000000000e+00 0.0000000000e+00 1.0000000000e-09\
 End

 C Diffusivity
     Size 3 3
      Real    1.0000000000e-09 0.0000000000e+00 0.0000000000e+00\
              0.0000000000e+00 1.0000000000e-09 0.0000000000e+00\
              0.0000000000e+00 0.0000000000e+00 1.0000000000e-09\
 End

 CA Diffusivity
     Size 3 3
      Real    1.0000000000e-09 0.0000000000e+00 0.0000000000e+00\
              0.0000000000e+00 1.0000000000e-09 0.0000000000e+00\
              0.0000000000e+00 0.0000000000e+00 1.0000000000e-09\
 End

 CL Diffusivity
     Size 3 3
      Real    1.0000000000e-09 0.0000000000e+00 0.0000000000e+00\
              0.0000000000e+00 1.0000000000e-09 0.0000000000e+00\
              0.0000000000e+00 0.0000000000e+00 1.0000000000e-09\
 End

 NA Diffusivity
     Size 3 3
      Real    1.0000000000e-09 0.0000000000e+00 0.0000000000e+00\
              0.0000000000e+00 1.0000000000e-09 0.0000000000e+00\
              0.0000000000e+00 0.0000000000e+00 1.0000000000e-09\
 End

 SI Diffusivity
     Size 3 3
      Real    1.0000000000e-09 0.0000000000e+00 0.0000000000e+00\
              0.0000000000e+00 1.0000000000e-09 0.0000000000e+00\
              0.0000000000e+00 0.0000000000e+00 1.0000000000e-09\
 End

 Long Dispersivity = Real 1.5000000000e+00
 Tran Dispersivity = Real 1.5000000000e+00
 Convection Velocity 1 = 0.000000e+00
 Convection Velocity 2 = 0.000000e+00
 Convection Velocity 3 = 0.000000e+00

End

! ~~~~~~~~~~
! Body Force
! ~~~~~~~~~~
Body Forces 1
 CB Diffusion Source = Real 0.0000000000e+00
 TH Diffusion Source = Real 0.0000000000e+00
 TO Diffusion Source = Real 0.0000000000e+00
 C Diffusion Source = Real 0.0000000000e+00
 CA Diffusion Source = Real 0.0000000000e+00
 CL Diffusion Source = Real 0.0000000000e+00
 NA Diffusion Source = Real 0.0000000000e+00
 SI Diffusion Source = Real 0.0000000000e+00
End

! ~~
! Equation p28 ref. Manual
! ~~

Equation 1
  Active Solvers(8) = 1 2 3 4 5 6 7 8 
  Convection = No
  Concentration Units = Absolute Mass
End

! ~~
! Solver p27 ref. Manual
! ~~
Solver 1
  Equation = Advection Diffusion Equation CB
  Variable = CB
  Variable DOFs = 1

  Procedure = "AdvectionDiffusionTimeStep" "AdvectionDiffusionTimeStepSolver"
  Linear System Solver = Iterative
  Linear System Iterative Method = GMRES
  Linear System Max Iterations = 400
  Linear System Convergence Tolerance = 1.000000e-08
  Linear System Preconditioning = ILU2
  Linear System Symmetric = False
  Lumped Mass Matrix = False
  Bubbles = True
  Namespace = string "CB"
End

Solver 2
  Equation = Advection Diffusion Equation TH
  Variable = TH
  Variable DOFs = 1

  Procedure = "AdvectionDiffusionTimeStep" "AdvectionDiffusionTimeStepSolver"
  Linear System Solver = Iterative
  Linear System Iterative Method = GMRES
  Linear System Max Iterations = 400
  Linear System Convergence Tolerance = 1.000000e-08
  Linear System Preconditioning = ILU2
  Linear System Symmetric = False
  Lumped Mass Matrix = False
  Bubbles = True
  Namespace = string "TH"
End

Solver 3
  Equation = Advection Diffusion Equation TO
  Variable = TO
  Variable DOFs = 1

  Procedure = "AdvectionDiffusionTimeStep" "AdvectionDiffusionTimeStepSolver"
  Linear System Solver = Iterative
  Linear System Iterative Method = GMRES
  Linear System Max Iterations = 400
  Linear System Convergence Tolerance = 1.000000e-08
  Linear System Preconditioning = ILU2
  Linear System Symmetric = False
  Lumped Mass Matrix = False
  Bubbles = True
  Namespace = string "TO"
End

Solver 4
  Equation = Advection Diffusion Equation C
  Variable = C
  Variable DOFs = 1

  Procedure = "AdvectionDiffusionTimeStep" "AdvectionDiffusionTimeStepSolver"
  Linear System Solver = Iterative
  Linear System Iterative Method = GMRES
  Linear System Max Iterations = 400
  Linear System Convergence Tolerance = 1.000000e-08
  Linear System Preconditioning = ILU2
  Linear System Symmetric = False
  Lumped Mass Matrix = False
  Bubbles = True
  Namespace = string "C"
End

Solver 5
  Equation = Advection Diffusion Equation CA
  Variable = CA
  Variable DOFs = 1

  Procedure = "AdvectionDiffusionTimeStep" "AdvectionDiffusionTimeStepSolver"
  Linear System Solver = Iterative
  Linear System Iterative Method = GMRES
  Linear System Max Iterations = 400
  Linear System Convergence Tolerance = 1.000000e-08
  Linear System Preconditioning = ILU2
  Linear System Symmetric = False
  Lumped Mass Matrix = False
  Bubbles = True
  Namespace = string "CA"
End

Solver 6
  Equation = Advection Diffusion Equation CL
  Variable = CL
  Variable DOFs = 1

  Procedure = "AdvectionDiffusionTimeStep" "AdvectionDiffusionTimeStepSolver"
  Linear System Solver = Iterative
  Linear System Iterative Method = GMRES
  Linear System Max Iterations = 400
  Linear System Convergence Tolerance = 1.000000e-08
  Linear System Preconditioning = ILU2
  Linear System Symmetric = False
  Lumped Mass Matrix = False
  Bubbles = True
  Namespace = string "CL"
End

Solver 7
  Equation = Advection Diffusion Equation NA
  Variable = NA
  Variable DOFs = 1

  Procedure = "AdvectionDiffusionTimeStep" "AdvectionDiffusionTimeStepSolver"
  Linear System Solver = Iterative
  Linear System Iterative Method = GMRES
  Linear System Max Iterations = 400
  Linear System Convergence Tolerance = 1.000000e-08
  Linear System Preconditioning = ILU2
  Linear System Symmetric = False
  Lumped Mass Matrix = False
  Bubbles = True
  Namespace = string "NA"
End

Solver 8
  Equation = Advection Diffusion Equation SI
  Variable = SI
  Variable DOFs = 1

  Procedure = "AdvectionDiffusionTimeStep" "AdvectionDiffusionTimeStepSolver"
  Linear System Solver = Iterative
  Linear System Iterative Method = GMRES
  Linear System Max Iterations = 400
  Linear System Convergence Tolerance = 1.000000e-08
  Linear System Preconditioning = ILU2
  Linear System Symmetric = False
  Lumped Mass Matrix = False
  Bubbles = True
  Namespace = string "SI"
End

! ~~
! Boundary p30 ref. Manual
! ~~
Boundary Condition 1
  Target Boundaries (1) = 1
  CB = Real 1.980287e-16
  TH = Real 1.110507e+02
  TO = Real 5.552576e+01
  C = Real 1.214025e-05
  CA = Real 1.060872e-10
  CL = Real 1.029046e+00
  NA = Real 1.029046e+00
  SI = Real 0.000000e+00
End

Boundary Condition 2
  Target Boundaries (1) = 2
  CB = Real 1.980287e-16
  TH = Real 1.110507e+02
  TO = Real 5.552576e+01
  C = Real 1.214025e-05
  CA = Real 1.060872e-10
  CL = Real 1.029046e+00
  NA = Real 1.029046e+00
  SI = Real 0.000000e+00
End

! ~~
! initial condition p8 ref. ElmersolverManual
! ~~
Initial Condition 3
  CB = Real -8.116521e-03
  TH = Real 1.110528e+02
  TO = Real 5.553503e+01
  C = Real 3.667853e-03
  CA = Real 2.459370e-02
  CL = Real 1.028271e+00
  NA = Real 9.731472e-01
  SI = Real 9.414028e-05
End
Initial Condition 4
  CB = Real -1.053681e-16
  TH = Real 1.110507e+02
  TO = Real 7.532533e+01
  C = Real 9.900000e+00
  CA = Real 1.062070e-10
  CL = Real 1.062071e+00
  NA = Real 1.062070e+00
  SI = Real 0.000000e+00
End
Initial Condition 5
  CB = Real -8.116521e-03
  TH = Real 1.110528e+02
  TO = Real 5.553244e+01
  C = Real 1.864310e-03
  CA = Real 2.459370e-02
  CL = Real 1.028271e+00
  NA = Real 9.731472e-01
  SI = Real 6.053018e-04
End
