CHECK KEYWORDS Warn

Header
Mesh DB "." "SDarcy2d"
Include Path""
Results Directory ""
End

Simulation
  Coordinate System = "Cartesian 2D"
  Simulation Type = "Transient"
  Coordinate Mapping(3) = 1 2 3
  Timestep Intervals = 8
  Timestep Sizes = 5.0
  Timestepping Method = BDF
  Solver Input File = htest.sif
  BDF Order = 2
  Output File = "h.dat"
  Post File = "h.ep"
End
! ~~
! Constants
! ~~
Constants
 Gravity(4) = 0 -1 0 9.780000e+00
End
! ~~
! Body
! ~~
Body 1
  Name = "body1"
  Equation = 1
  Material = 201
End

Body 2
  Name = "body2"
  Equation = 1 
  Material = 201
  Initial Condition = 1
End

! ~~
! Material p29 ref. Manual
! ~~

Material 201
 Density = Real 1.0000000000e+00
 Viscosity = Real 1.0000000000e+00
 Hydr Conductivity = Real 1.0000000000e-04
 Specific Storage = Real 1.0000000000e+00
 Compressibility Model = Incompressible
End

Material 202
 Density = Real 1.0000000000e+00
 Viscosity = Real 1.0000000000e+00
 Hydr Conductivity = Real 1.0000000000e-01
 Specific Storage = Real 1.0000000000e+00
 Compressibility Model = Incompressible
End

! ~~
! Equation p28 ref. Manual
! ~~

Equation 1
  Active Solvers(2) = 1 2
End

! ~~
! Solver p27 ref. Manual
! ~~
Solver 1
  Exec Solver = "Always"
  Equation = "Darcy Equation"
  Procedure = "DarcySolve" "DarcySolver"
  Variable = "Charge"
  Variable Dofs = 1
  Linear System Solver = "Iterative"
  Linear System Iterative Method = "BiCGStab"
  Linear System Max Iterations = 500
  Linear System Convergence Tolerance = 1.000000e-10
  Linear System Preconditioning = "ILU0"
  Steady State Convergence Tolerance = 1e-08
  Stabilize = True
End

Solver 2
  Equation = ComputeFlux
  Procedure = "FluxSolver" "FluxSolver"
  Flux Variable = String Charge
  Flux Coefficient = String "Hydr Conductivity"
  Linear System Convergence Tolerance = 5.000000e-03
End

! ~~
! Material p29 ref. Manual
! ~~
! AB
Boundary Condition 202
  Target Boundaries (1) = 1
  Charge = Real 1.123456e+00
End
! ~~
! initial condition p8 ref. ElmersolverManual
! ~~
Initial Condition 1
  Charge = Real 0.0000e+00
End

