 LISTING FILE: modhw.lst
                         UNIT   6

 OPENING modhw.bas
 FILE TYPE:BAS   UNIT   5

 OPENING modhw.sip
 FILE TYPE:SIP   UNIT  13

 OPENING modhw.oc
 FILE TYPE:OC   UNIT  14

 OPENING modhw.bcf
 FILE TYPE:BCF   UNIT  11
1                                 MODFLOW
      U.S. GEOLOGICAL SURVEY MODULAR FINITE-DIFFERENCE GROUND-WATER FLOW MODEL

 Python Interface generated                                                      
 Es war einmal ... nie vier                                                      
    1 LAYERS         1 ROWS        51 COLUMNS
   1 STRESS PERIOD(S) IN SIMULATION
 MODEL TIME UNIT IS SECONDS

 BAS5 -- BASIC MODEL PACKAGE, VERSION 5, 1/1/95 INPUT READ FROM UNIT  5
 ARRAYS RHS AND BUFF WILL SHARE MEMORY
 INITIAL HEAD WILL BE KEPT THROUGHOUT THE SIMULATION
        515 ELEMENTS IN X ARRAY ARE USED BY BAS
        515 ELEMENTS OF X ARRAY USED OUT OF    1500000

 BCF5 -- BLOCK-CENTERED FLOW PACKAGE, VERSION 5, 9/1/93 INPUT READ FROM UNIT 11
 STEADY-STATE SIMULATION
 HEAD AT CELLS THAT CONVERT TO DRY=   0.0000    
 WETTING CAPABILITY IS NOT ACTIVE
      LAYER  LAYER-TYPE CODE     INTERBLOCK T
      --------------------------------------------
         1            0          0 -- HARMONIC    
          1 ELEMENTS IN X ARRAY ARE USED BY BCF
        516 ELEMENTS OF X ARRAY USED OUT OF    1500000

 SIP5 -- STRONGLY IMPLICIT PROCEDURE SOLUTION PACKAGE
                    VERSION 5, 9/1/93 INPUT READ FROM UNIT 13
 MAXIMUM OF**** ITERATIONS ALLOWED FOR CLOSURE
  5 ITERATION PARAMETERS
      40209 ELEMENTS IN X ARRAY ARE USED BY SIP
      40725 ELEMENTS OF X ARRAY USED OUT OF    1500000
1
 Python Interface generated                                                      
 Es war einmal ... nie vier                                                      



                     BOUNDARY ARRAY FOR LAYER   1
 READING ON UNIT   5 WITH FORMAT:               (51I3)

 AQUIFER HEAD WILL BE SET TO  999.99     AT ALL NO-FLOW NODES (IBOUND=0).



                       INITIAL HEAD FOR LAYER   1
 READING ON UNIT   5 WITH FORMAT: (51E15.8)           

            1           2           3           4           5           6           7           8           9          10
           11          12          13          14          15          16          17          18          19          20
           21          22          23          24          25          26          27          28          29          30
           31          32          33          34          35          36          37          38          39          40
           41          42          43          44          45          46          47          48          49          50
           51
 ........................................................................................................................
   1   2.7778E-07   0.000       0.000       0.000       0.000       0.000       0.000       0.000       0.000       0.000    
        0.000       0.000       0.000       0.000       0.000       0.000       0.000       0.000       0.000       0.000    
        0.000       0.000       0.000       0.000       0.000       0.000       0.000       0.000       0.000       0.000    
        0.000       0.000       0.000       0.000       0.000       0.000       0.000       0.000       0.000       0.000    
        0.000       0.000       0.000       0.000       0.000       0.000       0.000       0.000       0.000       0.000    
       1.0000E-20

 OUTPUT CONTROL IS SPECIFIED EVERY TIME STEP
 HEAD PRINT FORMAT CODE IS   6    DRAWDOWN PRINT FORMAT CODE IS   6
 HEADS WILL BE SAVED ON UNIT   0    DRAWDOWNS WILL BE SAVED ON UNIT   0



           COLUMN TO ROW ANISOTROPY
 READING ON UNIT  11 WITH FORMAT: (51E15.8)           
   1.0000    



                               DELR
 READING ON UNIT  11 WITH FORMAT: (51E15.8)           
  1.00000E-02  2.00000E-03  2.00000E-03  2.00000E-03  2.00000E-03  2.00000E-03  2.00000E-03  2.00000E-03  2.00000E-03  2.00000E-03
  2.00000E-03  2.00000E-03  2.00000E-03  2.00000E-03  2.00000E-03  2.00000E-03  2.00000E-03  2.00000E-03  2.00000E-03  2.00000E-03
  2.00000E-03  2.00000E-03  2.00000E-03  2.00000E-03  2.00000E-03  2.00000E-03  2.00000E-03  2.00000E-03  2.00000E-03  2.00000E-03
  2.00000E-03  2.00000E-03  2.00000E-03  2.00000E-03  2.00000E-03  2.00000E-03  2.00000E-03  2.00000E-03  2.00000E-03  2.00000E-03
  2.00000E-03  2.00000E-03  2.00000E-03  2.00000E-03  2.00000E-03  2.00000E-03  2.00000E-03  2.00000E-03  2.00000E-03  2.00000E-03
  2.00000E-03



                               DELC
 READING ON UNIT  11 WITH FORMAT: (1E15.8)            
  0.10000    



               TRANSMIS. ALONG ROWS FOR LAYER   1
 READING ON UNIT  11 WITH FORMAT: (51E15.8)           

           1       2       3       4       5       6       7       8       9      10      11      12      13      14      15
          16      17      18      19      20      21      22      23      24      25      26      27      28      29      30
          31      32      33      34      35      36      37      38      39      40      41      42      43      44      45
          46      47      48      49      50      51
 ...........................................................................................................................
   1     1.00    1.00    1.00    1.00    1.00    1.00    1.00    1.00    1.00    1.00    1.00    1.00    1.00    1.00    1.00
         1.00    1.00    1.00    1.00    1.00    1.00    1.00    1.00    1.00    1.00    1.00    1.00    1.00    1.00    1.00
         1.00    1.00    1.00    1.00    1.00    1.00    1.00    1.00    1.00    1.00    1.00    1.00    1.00    1.00    1.00
         1.00    1.00    1.00    1.00    1.00    1.00



          SOLUTION BY THE STRONGLY IMPLICIT PROCEDURE
          -------------------------------------------
 MAXIMUM ITERATIONS ALLOWED FOR CLOSURE =    10000
                 ACCELERATION PARAMETER =    0.50000    
      HEAD CHANGE CRITERION FOR CLOSURE =    0.10000E-19
      SIP HEAD CHANGE PRINTOUT INTERVAL =      100

     CALCULATE ITERATION PARAMETERS FROM MODEL CALCULATED WSEED
1
                            STRESS PERIOD NO.   1, LENGTH =  0.8999999E+10
                            ----------------------------------------------

                              NUMBER OF TIME STEPS =     1

                               MULTIPLIER FOR DELT =    10.000

                            INITIAL TIME STEP SIZE =  0.8999999E+10

 AVERAGE SEED = 0.00189727
 MINIMUM SEED = 0.00189727

     5 ITERATION PARAMETERS CALCULATED FROM AVERAGE SEED:

  0.000000E+00 0.791295E+00 0.956442E+00 0.990909E+00 0.998103E+00

    45 ITERATIONS FOR TIME STEP   1 IN STRESS PERIOD  1

 MAXIMUM HEAD CHANGE FOR EACH ITERATION:

    HEAD CHANGE   HEAD CHANGE   HEAD CHANGE   HEAD CHANGE   HEAD CHANGE
  LAYER,ROW,COL LAYER,ROW,COL LAYER,ROW,COL LAYER,ROW,COL LAYER,ROW,COL
 ----------------------------------------------------------------------
     0.1309E-06    0.6544E-07    0.3272E-07    0.1636E-07    0.8180E-08
  (  1,  1,  2) (  1,  1,  2) (  1,  1,  2) (  1,  1,  2) (  1,  1,  2)
     0.4090E-08    0.2045E-08    0.1022E-08    0.5112E-09    0.2556E-09
  (  1,  1,  2) (  1,  1,  2) (  1,  1,  2) (  1,  1,  2) (  1,  1,  2)
     0.1278E-09    0.6390E-10    0.3195E-10    0.1598E-10    0.7988E-11
  (  1,  1,  2) (  1,  1,  2) (  1,  1,  2) (  1,  1,  2) (  1,  1,  2)
     0.3994E-11    0.1997E-11    0.9985E-12    0.4993E-12    0.2496E-12
  (  1,  1,  2) (  1,  1,  2) (  1,  1,  2) (  1,  1,  2) (  1,  1,  2)
     0.1248E-12    0.6241E-13    0.3120E-13    0.1560E-13    0.7801E-14
  (  1,  1,  2) (  1,  1,  2) (  1,  1,  2) (  1,  1,  2) (  1,  1,  2)
     0.3900E-14    0.1950E-14    0.9751E-15    0.4876E-15    0.2438E-15
  (  1,  1,  2) (  1,  1,  2) (  1,  1,  2) (  1,  1,  2) (  1,  1,  2)
     0.1219E-15    0.6094E-16    0.3047E-16    0.1524E-16    0.7618E-17
  (  1,  1,  2) (  1,  1,  2) (  1,  1,  2) (  1,  1,  2) (  1,  1,  2)
     0.3809E-17    0.1904E-17    0.9522E-18    0.4761E-18    0.2381E-18
  (  1,  1,  2) (  1,  1,  2) (  1,  1,  2) (  1,  1,  2) (  1,  1,  2)
     0.1190E-18    0.5954E-19    0.2976E-19    0.1482E-19    0.7495E-20
  (  1,  1,  2) (  1,  1,  2) (  1,  1,  2) (  1,  1,  2) (  1,  1,  2)


 HEAD/DRAWDOWN PRINTOUT FLAG = 1     TOTAL BUDGET PRINTOUT FLAG = 0
 CELL-BY-CELL FLOW TERM FLAG = 1

 OUTPUT FLAGS FOR ALL LAYERS ARE THE SAME:
   HEAD    DRAWDOWN  HEAD  DRAWDOWN
 PRINTOUT  PRINTOUT  SAVE    SAVE
 ----------------------------------
     1         0       1       0

 SATURATED THICKNESS AND FLOW TERMS SAVED ON UNIT 32 FOR MT3D BY LINKMT3D PACKAGE 5.0
  FNAME VALUE Monod.umt
1
              HEAD IN LAYER  1 AT END OF TIME STEP  1 IN STRESS PERIOD  1
  -----------------------------------------------------------------------

           1       2       3       4       5       6       7       8       9      10      11      12      13      14      15
          16      17      18      19      20      21      22      23      24      25      26      27      28      29      30
          31      32      33      34      35      36      37      38      39      40      41      42      43      44      45
          46      47      48      49      50      51
 ...........................................................................................................................
   1   0.0000  0.0000  0.0000  0.0000  0.0000  0.0000  0.0000  0.0000  0.0000  0.0000  0.0000  0.0000  0.0000  0.0000  0.0000
       0.0000  0.0000  0.0000  0.0000  0.0000  0.0000  0.0000  0.0000  0.0000  0.0000  0.0000  0.0000  0.0000  0.0000  0.0000
       0.0000  0.0000  0.0000  0.0000  0.0000  0.0000  0.0000  0.0000  0.0000  0.0000  0.0000  0.0000  0.0000  0.0000  0.0000
       0.0000  0.0000  0.0000  0.0000  0.0000  0.0000
1
  VOLUMETRIC BUDGET FOR ENTIRE MODEL AT END OF TIME STEP  1 IN STRESS PERIOD  1
  -----------------------------------------------------------------------------

     CUMULATIVE VOLUMES      L**3       RATES FOR THIS TIME STEP      L**3/T
     ------------------                 ------------------------

           IN:                                      IN:
           ---                                      ---
       CONSTANT HEAD =        2403.8459         CONSTANT HEAD =       2.6709E-07

            TOTAL IN =        2403.8459              TOTAL IN =       2.6709E-07

          OUT:                                     OUT:
          ----                                     ----
       CONSTANT HEAD =        2403.8462         CONSTANT HEAD =       2.6709E-07

           TOTAL OUT =        2403.8462             TOTAL OUT =       2.6709E-07

            IN - OUT =      -2.4414E-04              IN - OUT =      -2.8422E-14

 PERCENT DISCREPANCY =          -0.00     PERCENT DISCREPANCY =          -0.00






          TIME SUMMARY AT END OF TIME STEP  1 IN STRESS PERIOD  1
                    SECONDS     MINUTES      HOURS       DAYS        YEARS
                    -----------------------------------------------------------
   TIME STEP LENGTH 9.00000E+09 1.50000E+08 2.50000E+06 1.04167E+05  285.19    
 STRESS PERIOD TIME 9.00000E+09 1.50000E+08 2.50000E+06 1.04167E+05  285.19    
         TOTAL TIME 9.00000E+09 1.50000E+08 2.50000E+06 1.04167E+05  285.19    
1
