Check Keywords Warn

Header
Mesh DB "." "mesh"
Include Path "." 
Results Directory ""
End

Simulation
  Coordinate System = Cartesian 1D

  Simulation Type = transient
  Coordinate Mapping(3) = 1 2 3
  Timestepping Method = BDF
  BDF Order = 1
  Solver Input File = test.sif
  Timestep Sizes = 100
  Timestep Intervals = 5

  Output Intervals = 1
!  Lumped Mass Matrix = False
  Max Output Level = 3
End

! ~~
! Constants
! ~~
Constants
 Gravity(4) = 0 -1 0 9.780000e+00
End

! ~~
! Body
! ~~
Body 1
  Name = "body1"
  Equation = 1
  Material = 1
End

Body 2
  Equation = 1 
  Material = 2
  Initial Condition = 2
  Body Force = 1
End

! ~~
! Material p29 ref. Manual
! ~~
Material 2
 Density = Real 1.0000000000e+03
 Water Density = Real 1.0000000000e+03
 Viscosity = Real 1.0000000000e+00
 Porosity = Real 1.0000000000e+00
 Compressibility Model = Incompressible
 CB Diffusivity
     Size 3 3
      Real    7.0000000000e-09 0.0000000000e+00 0.0000000000e+00\
              0.0000000000e+00 0.0000000000e+00 0.0000000000e+00\
              0.0000000000e+00 0.0000000000e+00 0.0000000000e+00\
 End

 TH Diffusivity
     Size 3 3
      Real    7.0000000000e-09 0.0000000000e+00 0.0000000000e+00\
              0.0000000000e+00 0.0000000000e+00 0.0000000000e+00\
              0.0000000000e+00 0.0000000000e+00 0.0000000000e+00\
 End

 TO Diffusivity
     Size 3 3
      Real    7.0000000000e-09 0.0000000000e+00 0.0000000000e+00\
              0.0000000000e+00 0.0000000000e+00 0.0000000000e+00\
              0.0000000000e+00 0.0000000000e+00 0.0000000000e+00\
 End

 AMM Diffusivity
     Size 3 3
      Real    7.0000000000e-09 0.0000000000e+00 0.0000000000e+00\
              0.0000000000e+00 0.0000000000e+00 0.0000000000e+00\
              0.0000000000e+00 0.0000000000e+00 0.0000000000e+00\
 End

 C Diffusivity
     Size 3 3
      Real    7.0000000000e-09 0.0000000000e+00 0.0000000000e+00\
              0.0000000000e+00 0.0000000000e+00 0.0000000000e+00\
              0.0000000000e+00 0.0000000000e+00 0.0000000000e+00\
 End

 CA Diffusivity
     Size 3 3
      Real    7.0000000000e-09 0.0000000000e+00 0.0000000000e+00\
              0.0000000000e+00 0.0000000000e+00 0.0000000000e+00\
              0.0000000000e+00 0.0000000000e+00 0.0000000000e+00\
 End

 CL Diffusivity
     Size 3 3
      Real    7.0000000000e-09 0.0000000000e+00 0.0000000000e+00\
              0.0000000000e+00 0.0000000000e+00 0.0000000000e+00\
              0.0000000000e+00 0.0000000000e+00 0.0000000000e+00\
 End

 NA Diffusivity
     Size 3 3
      Real    7.0000000000e-09 0.0000000000e+00 0.0000000000e+00\
              0.0000000000e+00 0.0000000000e+00 0.0000000000e+00\
              0.0000000000e+00 0.0000000000e+00 0.0000000000e+00\
 End

 SULFATE Diffusivity
     Size 3 3
      Real    7.0000000000e-09 0.0000000000e+00 0.0000000000e+00\
              0.0000000000e+00 0.0000000000e+00 0.0000000000e+00\
              0.0000000000e+00 0.0000000000e+00 0.0000000000e+00\
 End

 TR Diffusivity
     Size 3 3
      Real    7.0000000000e-09 0.0000000000e+00 0.0000000000e+00\
              0.0000000000e+00 0.0000000000e+00 0.0000000000e+00\
              0.0000000000e+00 0.0000000000e+00 0.0000000000e+00\
 End

 UREA Diffusivity
     Size 3 3
      Real    7.0000000000e-09 0.0000000000e+00 0.0000000000e+00\
              0.0000000000e+00 0.0000000000e+00 0.0000000000e+00\
              0.0000000000e+00 0.0000000000e+00 0.0000000000e+00\
 End

 Z Diffusivity
     Size 3 3
      Real    7.0000000000e-09 0.0000000000e+00 0.0000000000e+00\
              0.0000000000e+00 0.0000000000e+00 0.0000000000e+00\
              0.0000000000e+00 0.0000000000e+00 0.0000000000e+00\
 End

 Long Dispersivity = Real 2.0000000000e-02
 Tran Dispersivity = Real 0.0000000000e+00
 Convection Velocity 1 = 3.500000e-07
 Convection Velocity 2 = 0.000000e+00
 Convection Velocity 3 = 0.000000e+00

End

! ~~~~~~~~~~
! Body Force
! ~~~~~~~~~~
Body Forces 1
 CB Diffusion Source = Real 0.0000000000e+00
 TH Diffusion Source = Real 0.0000000000e+00
 TO Diffusion Source = Real 0.0000000000e+00
 AMM Diffusion Source = Real 0.0000000000e+00
 C Diffusion Source = Real 0.0000000000e+00
 CA Diffusion Source = Real 0.0000000000e+00
 CL Diffusion Source = Real 0.0000000000e+00
 NA Diffusion Source = Real 0.0000000000e+00
 SULFATE Diffusion Source = Real 0.0000000000e+00
 TR Diffusion Source = Real 0.0000000000e+00
 UREA Diffusion Source = Real 0.0000000000e+00
 Z Diffusion Source = Real 0.0000000000e+00
End

! ~~
! Equation p28 ref. Manual
! ~~

Equation 1
  Active Solvers(12) = 1 2 3 4 5 6 7 8 9 10 11 12 
  Convection = Constant
  Concentration Units = Absolute Mass
End

! ~~
! Solver p27 ref. Manual
! ~~
Solver 1
  Equation = Advection Diffusion Equation CB
  Variable = CB
  Variable DOFs = 1

  Procedure = "AdvectionDiffusionTimeStep" "AdvectionDiffusionTimeStepSolver"
  Linear System Solver = Iterative
  Linear System Iterative Method = GMRES
  Linear System Max Iterations = 600
  Linear System Convergence Tolerance = 1.000000e-10
  Linear System Preconditioning = ILU0
  Linear System Symmetric = False
  Lumped Mass Matrix = False
  Bubbles = True
  Namespace = string "CB"
End

Solver 2
  Equation = Advection Diffusion Equation TH
  Variable = TH
  Variable DOFs = 1

  Procedure = "AdvectionDiffusionTimeStep" "AdvectionDiffusionTimeStepSolver"
  Linear System Solver = Iterative
  Linear System Iterative Method = GMRES
  Linear System Max Iterations = 600
  Linear System Convergence Tolerance = 1.000000e-10
  Linear System Preconditioning = ILU0
  Linear System Symmetric = False
  Lumped Mass Matrix = False
  Bubbles = True
  Namespace = string "TH"
End

Solver 3
  Equation = Advection Diffusion Equation TO
  Variable = TO
  Variable DOFs = 1

  Procedure = "AdvectionDiffusionTimeStep" "AdvectionDiffusionTimeStepSolver"
  Linear System Solver = Iterative
  Linear System Iterative Method = GMRES
  Linear System Max Iterations = 600
  Linear System Convergence Tolerance = 1.000000e-10
  Linear System Preconditioning = ILU0
  Linear System Symmetric = False
  Lumped Mass Matrix = False
  Bubbles = True
  Namespace = string "TO"
End

Solver 4
  Equation = Advection Diffusion Equation AMM
  Variable = AMM
  Variable DOFs = 1

  Procedure = "AdvectionDiffusionTimeStep" "AdvectionDiffusionTimeStepSolver"
  Linear System Solver = Iterative
  Linear System Iterative Method = GMRES
  Linear System Max Iterations = 600
  Linear System Convergence Tolerance = 1.000000e-10
  Linear System Preconditioning = ILU0
  Linear System Symmetric = False
  Lumped Mass Matrix = False
  Bubbles = True
  Namespace = string "AMM"
End

Solver 5
  Equation = Advection Diffusion Equation C
  Variable = C
  Variable DOFs = 1

  Procedure = "AdvectionDiffusionTimeStep" "AdvectionDiffusionTimeStepSolver"
  Linear System Solver = Iterative
  Linear System Iterative Method = GMRES
  Linear System Max Iterations = 600
  Linear System Convergence Tolerance = 1.000000e-10
  Linear System Preconditioning = ILU0
  Linear System Symmetric = False
  Lumped Mass Matrix = False
  Bubbles = True
  Namespace = string "C"
End

Solver 6
  Equation = Advection Diffusion Equation CA
  Variable = CA
  Variable DOFs = 1

  Procedure = "AdvectionDiffusionTimeStep" "AdvectionDiffusionTimeStepSolver"
  Linear System Solver = Iterative
  Linear System Iterative Method = GMRES
  Linear System Max Iterations = 600
  Linear System Convergence Tolerance = 1.000000e-10
  Linear System Preconditioning = ILU0
  Linear System Symmetric = False
  Lumped Mass Matrix = False
  Bubbles = True
  Namespace = string "CA"
End

Solver 7
  Equation = Advection Diffusion Equation CL
  Variable = CL
  Variable DOFs = 1

  Procedure = "AdvectionDiffusionTimeStep" "AdvectionDiffusionTimeStepSolver"
  Linear System Solver = Iterative
  Linear System Iterative Method = GMRES
  Linear System Max Iterations = 600
  Linear System Convergence Tolerance = 1.000000e-10
  Linear System Preconditioning = ILU0
  Linear System Symmetric = False
  Lumped Mass Matrix = False
  Bubbles = True
  Namespace = string "CL"
End

Solver 8
  Equation = Advection Diffusion Equation NA
  Variable = NA
  Variable DOFs = 1

  Procedure = "AdvectionDiffusionTimeStep" "AdvectionDiffusionTimeStepSolver"
  Linear System Solver = Iterative
  Linear System Iterative Method = GMRES
  Linear System Max Iterations = 600
  Linear System Convergence Tolerance = 1.000000e-10
  Linear System Preconditioning = ILU0
  Linear System Symmetric = False
  Lumped Mass Matrix = False
  Bubbles = True
  Namespace = string "NA"
End

Solver 9
  Equation = Advection Diffusion Equation SULFATE
  Variable = SULFATE
  Variable DOFs = 1

  Procedure = "AdvectionDiffusionTimeStep" "AdvectionDiffusionTimeStepSolver"
  Linear System Solver = Iterative
  Linear System Iterative Method = GMRES
  Linear System Max Iterations = 600
  Linear System Convergence Tolerance = 1.000000e-10
  Linear System Preconditioning = ILU0
  Linear System Symmetric = False
  Lumped Mass Matrix = False
  Bubbles = True
  Namespace = string "SULFATE"
End

Solver 10
  Equation = Advection Diffusion Equation TR
  Variable = TR
  Variable DOFs = 1

  Procedure = "AdvectionDiffusionTimeStep" "AdvectionDiffusionTimeStepSolver"
  Linear System Solver = Iterative
  Linear System Iterative Method = GMRES
  Linear System Max Iterations = 600
  Linear System Convergence Tolerance = 1.000000e-10
  Linear System Preconditioning = ILU0
  Linear System Symmetric = False
  Lumped Mass Matrix = False
  Bubbles = True
  Namespace = string "TR"
End

Solver 11
  Equation = Advection Diffusion Equation UREA
  Variable = UREA
  Variable DOFs = 1

  Procedure = "AdvectionDiffusionTimeStep" "AdvectionDiffusionTimeStepSolver"
  Linear System Solver = Iterative
  Linear System Iterative Method = GMRES
  Linear System Max Iterations = 600
  Linear System Convergence Tolerance = 1.000000e-10
  Linear System Preconditioning = ILU0
  Linear System Symmetric = False
  Lumped Mass Matrix = False
  Bubbles = True
  Namespace = string "UREA"
End

Solver 12
  Equation = Advection Diffusion Equation Z
  Variable = Z
  Variable DOFs = 1

  Procedure = "AdvectionDiffusionTimeStep" "AdvectionDiffusionTimeStepSolver"
  Linear System Solver = Iterative
  Linear System Iterative Method = GMRES
  Linear System Max Iterations = 600
  Linear System Convergence Tolerance = 1.000000e-10
  Linear System Preconditioning = ILU0
  Linear System Symmetric = False
  Lumped Mass Matrix = False
  Bubbles = True
  Namespace = string "Z"
End

! ~~
! Boundary p30 ref. Manual
! ~~
Boundary Condition 1
  Target Boundaries (1) = 1
  CB = Real -2.031775e-03
  TH = Real 1.110176e+02
  TO = Real 5.551809e+01
  AMM = Real 2.000942e-05
  C = Real 3.751767e-03
  CA = Real 1.000471e-03
  CL = Real 3.001414e-03
  NA = Real 3.001414e-03
  SULFATE = Real 2.000942e-04
  TR = Real 1.000471e-03
  UREA = Real 1.000471e-02
  Z = Real 2.000942e-05
End

! ~~
! initial condition p8 ref. ElmersolverManual
! ~~
Initial Condition 2
  CB = Real -1.855572e-03
  TH = Real 1.110175e+02
  TO = Real 5.551734e+01
  AMM = Real 0.000000e+00
  C = Real 3.501332e-03
  CA = Real 1.000381e-03
  CL = Real 2.000761e-03
  NA = Real 1.750666e-03
  SULFATE = Real 2.000761e-04
  TR = Real 0.000000e+00
  UREA = Real 0.000000e+00
  Z = Real 2.000761e-05
End
