Check Keywords Warn

Header
Mesh DB "." "ex11"
Include Path "." 
Results Directory ""
End

Simulation
  Coordinate System = Cartesian 1D

  Simulation Type = transient
  Coordinate Mapping(3) = 1 2 3
  Timestepping Method = BDF
  BDF Order = 1
  Solver Input File = test.sif
  Timestep Sizes = 100
  Timestep Intervals = 5

  Output Intervals = 1
!  Lumped Mass Matrix = False
  Max Output Level = 3
End

! ~~
! Constants
! ~~
Constants
 Gravity(4) = 0 -1 0 9.780000e+00
End

! ~~
! Body
! ~~
Body 1
  Name = "body1"
  Equation = 1
  Material = 1
End

Body 2
  Equation = 1 
  Material = 2
  Initial Condition = 2
  Body Force = 1
End

! ~~
! Material p29 ref. Manual
! ~~
Material 2
 Density = Real 1.0000000000e+03
 Water Density = Real 1.0000000000e+03
 Viscosity = Real 1.0000000000e+00
 Porosity = Real 1.0000000000e+00
 Compressibility Model = Incompressible
 CB Diffusivity
     Size 3 3
      Real    3.0000000000e-09 0.0000000000e+00 0.0000000000e+00\
              0.0000000000e+00 3.0000000000e-09 0.0000000000e+00\
              0.0000000000e+00 0.0000000000e+00 3.0000000000e-09\
 End

 TH Diffusivity
     Size 3 3
      Real    3.0000000000e-09 0.0000000000e+00 0.0000000000e+00\
              0.0000000000e+00 3.0000000000e-09 0.0000000000e+00\
              0.0000000000e+00 0.0000000000e+00 3.0000000000e-09\
 End

 TO Diffusivity
     Size 3 3
      Real    3.0000000000e-09 0.0000000000e+00 0.0000000000e+00\
              0.0000000000e+00 3.0000000000e-09 0.0000000000e+00\
              0.0000000000e+00 0.0000000000e+00 3.0000000000e-09\
 End

 CA Diffusivity
     Size 3 3
      Real    3.0000000000e-09 0.0000000000e+00 0.0000000000e+00\
              0.0000000000e+00 3.0000000000e-09 0.0000000000e+00\
              0.0000000000e+00 0.0000000000e+00 3.0000000000e-09\
 End

 CL Diffusivity
     Size 3 3
      Real    3.0000000000e-09 0.0000000000e+00 0.0000000000e+00\
              0.0000000000e+00 3.0000000000e-09 0.0000000000e+00\
              0.0000000000e+00 0.0000000000e+00 3.0000000000e-09\
 End

 K Diffusivity
     Size 3 3
      Real    3.0000000000e-09 0.0000000000e+00 0.0000000000e+00\
              0.0000000000e+00 3.0000000000e-09 0.0000000000e+00\
              0.0000000000e+00 0.0000000000e+00 3.0000000000e-09\
 End

 N Diffusivity
     Size 3 3
      Real    3.0000000000e-09 0.0000000000e+00 0.0000000000e+00\
              0.0000000000e+00 3.0000000000e-09 0.0000000000e+00\
              0.0000000000e+00 0.0000000000e+00 3.0000000000e-09\
 End

 NA Diffusivity
     Size 3 3
      Real    3.0000000000e-09 0.0000000000e+00 0.0000000000e+00\
              0.0000000000e+00 3.0000000000e-09 0.0000000000e+00\
              0.0000000000e+00 0.0000000000e+00 3.0000000000e-09\
 End

 Long Dispersivity = Real 0.0000000000e+00
 Tran Dispersivity = Real 0.0000000000e+00
 Convection Velocity 1 = 2.777778e-06
 Convection Velocity 2 = 0.000000e+00
 Convection Velocity 3 = 0.000000e+00

End

! ~~~~~~~~~~
! Body Force
! ~~~~~~~~~~
Body Forces 1
 CB Diffusion Source = Real 0.0000000000e+00
 TH Diffusion Source = Real 0.0000000000e+00
 TO Diffusion Source = Real 0.0000000000e+00
 CA Diffusion Source = Real 0.0000000000e+00
 CL Diffusion Source = Real 0.0000000000e+00
 K Diffusion Source = Real 0.0000000000e+00
 N Diffusion Source = Real 0.0000000000e+00
 NA Diffusion Source = Real 0.0000000000e+00
End

! ~~
! Equation p28 ref. Manual
! ~~

Equation 1
  Active Solvers(8) = 1 2 3 4 5 6 7 8 
  Convection = Constant
  Concentration Units = Absolute Mass
End

! ~~
! Solver p27 ref. Manual
! ~~
Solver 1
  Equation = Advection Diffusion Equation CB
  Variable = CB
  Variable DOFs = 1

  Procedure = "AdvectionDiffusionTimeStep" "AdvectionDiffusionTimeStepSolver"
  Linear System Solver = Iterative
  Linear System Iterative Method = BiCG
  Linear System Max Iterations = 1000
  Linear System Convergence Tolerance = 1.000000e-15
  Linear System Preconditioning = ILU0
  Linear System Symmetric = False
  Lumped Mass Matrix = False
  Bubbles = True
  Namespace = string "CB"
End

Solver 2
  Equation = Advection Diffusion Equation TH
  Variable = TH
  Variable DOFs = 1

  Procedure = "AdvectionDiffusionTimeStep" "AdvectionDiffusionTimeStepSolver"
  Linear System Solver = Iterative
  Linear System Iterative Method = BiCG
  Linear System Max Iterations = 1000
  Linear System Convergence Tolerance = 1.000000e-15
  Linear System Preconditioning = ILU0
  Linear System Symmetric = False
  Lumped Mass Matrix = False
  Bubbles = True
  Namespace = string "TH"
End

Solver 3
  Equation = Advection Diffusion Equation TO
  Variable = TO
  Variable DOFs = 1

  Procedure = "AdvectionDiffusionTimeStep" "AdvectionDiffusionTimeStepSolver"
  Linear System Solver = Iterative
  Linear System Iterative Method = BiCG
  Linear System Max Iterations = 1000
  Linear System Convergence Tolerance = 1.000000e-15
  Linear System Preconditioning = ILU0
  Linear System Symmetric = False
  Lumped Mass Matrix = False
  Bubbles = True
  Namespace = string "TO"
End

Solver 4
  Equation = Advection Diffusion Equation CA
  Variable = CA
  Variable DOFs = 1

  Procedure = "AdvectionDiffusionTimeStep" "AdvectionDiffusionTimeStepSolver"
  Linear System Solver = Iterative
  Linear System Iterative Method = BiCG
  Linear System Max Iterations = 1000
  Linear System Convergence Tolerance = 1.000000e-15
  Linear System Preconditioning = ILU0
  Linear System Symmetric = False
  Lumped Mass Matrix = False
  Bubbles = True
  Namespace = string "CA"
End

Solver 5
  Equation = Advection Diffusion Equation CL
  Variable = CL
  Variable DOFs = 1

  Procedure = "AdvectionDiffusionTimeStep" "AdvectionDiffusionTimeStepSolver"
  Linear System Solver = Iterative
  Linear System Iterative Method = BiCG
  Linear System Max Iterations = 1000
  Linear System Convergence Tolerance = 1.000000e-15
  Linear System Preconditioning = ILU0
  Linear System Symmetric = False
  Lumped Mass Matrix = False
  Bubbles = True
  Namespace = string "CL"
End

Solver 6
  Equation = Advection Diffusion Equation K
  Variable = K
  Variable DOFs = 1

  Procedure = "AdvectionDiffusionTimeStep" "AdvectionDiffusionTimeStepSolver"
  Linear System Solver = Iterative
  Linear System Iterative Method = BiCG
  Linear System Max Iterations = 1000
  Linear System Convergence Tolerance = 1.000000e-15
  Linear System Preconditioning = ILU0
  Linear System Symmetric = False
  Lumped Mass Matrix = False
  Bubbles = True
  Namespace = string "K"
End

Solver 7
  Equation = Advection Diffusion Equation N
  Variable = N
  Variable DOFs = 1

  Procedure = "AdvectionDiffusionTimeStep" "AdvectionDiffusionTimeStepSolver"
  Linear System Solver = Iterative
  Linear System Iterative Method = BiCG
  Linear System Max Iterations = 1000
  Linear System Convergence Tolerance = 1.000000e-15
  Linear System Preconditioning = ILU0
  Linear System Symmetric = False
  Lumped Mass Matrix = False
  Bubbles = True
  Namespace = string "N"
End

Solver 8
  Equation = Advection Diffusion Equation NA
  Variable = NA
  Variable DOFs = 1

  Procedure = "AdvectionDiffusionTimeStep" "AdvectionDiffusionTimeStepSolver"
  Linear System Solver = Iterative
  Linear System Iterative Method = BiCG
  Linear System Max Iterations = 1000
  Linear System Convergence Tolerance = 1.000000e-15
  Linear System Preconditioning = ILU0
  Linear System Symmetric = False
  Lumped Mass Matrix = False
  Bubbles = True
  Namespace = string "NA"
End

! ~~
! Boundary p30 ref. Manual
! ~~
Boundary Condition 1
  Target Boundaries (1) = 1
  CB = Real 4.726920e-18
  TH = Real 1.110124e+02
  TO = Real 5.550622e+01
  CA = Real 6.000400e-04
  CL = Real 1.200080e-03
  K = Real 0.000000e+00
  N = Real 0.000000e+00
  NA = Real 0.000000e+00
End

! ~~
! initial condition p8 ref. ElmersolverManual
! ~~
Initial Condition 2
  CB = Real 1.087418e-18
  TH = Real 1.110124e+02
  TO = Real 5.550982e+01
  CA = Real 0.000000e+00
  CL = Real 0.000000e+00
  K = Real 2.000095e-04
  N = Real 1.200057e-03
  NA = Real 1.000048e-03
End
