ELMER SOLVER (v 5.4.1) STARTED AT: 2010/07/18 19:27:27
MAIN: 
MAIN: ==========================================
MAIN:  E L M E R  S O L V E R  S T A R T I N G
MAIN:  Library version: 5.4.1
MAIN: ==========================================
MAIN: 
MAIN: 
MAIN: -----------------------
MAIN: Reading Model ...
Model Input:  Unlisted keyword: [charge] in section: [boundary condition 101]
Model Input:  Unlisted keyword: [charge] in section: [boundary condition 102]
Model Input:  Unlisted keyword: [charge] in section: [initial condition 1]
MAIN: Done
MAIN: -----------------------
Loading user function library: [DarcySolve]...[DarcySolver_Init]
Loading user function library: [DarcySolve]...[DarcySolver]
OptimizeBandwidth: ---------------------------------------------------------
OptimizeBandwidth: Computing matrix structure for: darcy equation...done.
OptimizeBandwidth:  Half bandwidth without optimization:          302
OptimizeBandwidth: 
OptimizeBandwidth: Bandwidth Optimization ...done.
OptimizeBandwidth:  Half bandwidth after optimization:            7
OptimizeBandwidth: ---------------------------------------------------------
Loading user function library: [FluxSolver]...[FluxSolver_Init]
Loading user function library: [FluxSolver]...[FluxSolver]
OptimizeBandwidth: ---------------------------------------------------------
OptimizeBandwidth: Computing matrix structure for: computeflux...done.
OptimizeBandwidth:  Half bandwidth without optimization:          302
OptimizeBandwidth: 
OptimizeBandwidth: Bandwidth Optimization ...done.
OptimizeBandwidth:  Half bandwidth after optimization:            7
OptimizeBandwidth: ---------------------------------------------------------
MAIN: 
MAIN: -------------------------------------
MAIN:  Steady state iteration:            1
MAIN: -------------------------------------
MAIN: 
  dbg 12/11/09 file Darcysolve
DarcySolve: 
DarcySolve: 
DarcySolve: -------------------------------------
DarcySolve:  CHARGE ITERATIONs           1
DarcySolve: -------------------------------------
DarcySolve: 
DarcySolve: Starting Assembly...
DefUtils::DefaultDirichletBCs: Setting Dirichlet boundary conditions
DefUtils::DefaultDirichletBCs: Dirichlet boundary conditions set
DarcySolve: Assembly donessss
CRS_IncompleteLU: ILU(0) (Real), Starting Factorization:
CRS_IncompleteLU: ILU(0) (Real), NOF nonzeros:      2108
CRS_IncompleteLU: ILU(0) (Real), filling (%) :       100
CRS_IncompleteLU: ILU(0) (Real), Factorization ready at (s):     0.00
       1 0.1968E-03
       2 0.8603E-04
       3 0.6963E-04
       4 0.4263E-04
       5 0.7216E-04
       6 0.1295E-03
       7 0.3917E-03
       8 0.8291E-05
       9 0.5092E-05
      10 0.8013E-07
      11 0.8663E-07
      12 0.6142E-08
      13 0.7956E-10
      14 0.2746E-10
      15 0.2320E-12
      16 0.1131E-13
      17 0.5678E-15
      17 0.5678E-15
ComputeChange: NS (NRM,RELC): (   64.3739077574       2.00000000000     ) :: darcy equation
DarcySolve: iter:    1 Assembly: (s)    0.01    0.01
DarcySolve: iter:    1 Solve:    (s)    0.00    0.00
DarcySolve:  Result Norm   :    64.373907757401227
DarcySolve:  Relative Change :    2.0000000000000000
ComputeChange: SS (NRM,RELC): (   64.3739077574       2.00000000000     ) :: darcy equation
FluxSolver: -------------------------------------
FluxSolver: Computing the flux
FluxSolver: -------------------------------------
 dbg fluxsolver dim            2
 dbg fluxsolver dof           2
 dbg var name VarNamecharge                                                                                                                          
 dbg SolverParams CondNamehydr conductivity                                                                                                               
FluxSolver:  Assembly Time:   1.81519985198974609E-002
       1 0.5596E-05
ComputeChange: NS (NRM,RELC): (  0.400002280840E-03   2.00000000000     ) :: computeflux
 dbg flux            1           1           1   0.0000000000000000        0.0000000000000000       4.00017619936832299E-004
 dbg flux            1           2           2   20.000000000000000        0.0000000000000000       3.99998191474732379E-004
 dbg flux            1           3           3   20.000000000000000       1.00000000000000000       4.00017619936842382E-004
 dbg flux            1           4           4   0.0000000000000000       1.00000000000000000       4.00002370388878147E-004
 dbg flux            1           5           5  0.20000000000000001        0.0000000000000000       3.99989723940197240E-004
 dbg flux            1           6           6  0.39999999999899999        0.0000000000000000       4.00002370388960926E-004
 dbg flux            1           7           7  0.59999999999900000        0.0000000000000000       4.00006549303139113E-004
 dbg flux            1           8           8  0.79999999999799998        0.0000000000000000       3.99993450720161515E-004
 dbg flux            1           9           9  0.99999999999800004        0.0000000000000000       4.00006549303069724E-004
 dbg flux            1          10          10   1.2000000000000000        0.0000000000000000       4.00006549303116778E-004
 dbg flux            1          11          11   1.3999999999999999        0.0000000000000000       3.99993450720169375E-004
 dbg flux            1          12          12   1.6000000000000001        0.0000000000000000       4.00006549303097642E-004
 dbg flux            1          13          13   1.8000000000000000        0.0000000000000000       4.00006549303122904E-004
 dbg flux            1          14          14   2.0000000000000000        0.0000000000000000       3.99993450720184120E-004
 dbg flux            1          15          15   2.2000000000000002        0.0000000000000000       4.00006549303119651E-004
 dbg flux            1          16          16   2.3999999999999999        0.0000000000000000       4.00006549303146485E-004
 dbg flux            1          17          17   2.5999999999900001        0.0000000000000000       3.99993450720209057E-004
 dbg flux            1          18          18   2.7999999999899998        0.0000000000000000       4.00006549303150930E-004
 dbg flux            1          19          19   2.9999999999900000        0.0000000000000000       4.00006549303183619E-004
 dbg flux            1          20          20   3.1999999999900002        0.0000000000000000       3.99993450720240119E-004
 dbg flux            1          21          21   3.3999999999899999        0.0000000000000000       4.00006549303182155E-004
 dbg flux            1          22          22   3.5999999999900001        0.0000000000000000       4.00006549303227421E-004
 dbg flux            1          23          23   3.7999999999899998        0.0000000000000000       3.99993450720278500E-004
 dbg flux            1          24          24   3.9999999999900000        0.0000000000000000       4.00006549303218639E-004
 dbg flux            1          25          25   4.1999999999900002        0.0000000000000000       4.00006549303272198E-004
 dbg flux            1          26          26   4.3999999999900004        0.0000000000000000       3.99993450720325554E-004
 dbg flux            1          27          27   4.5999999999899996        0.0000000000000000       4.00006549303265964E-004
 dbg flux            1          28          28   4.7999999999899998        0.0000000000000000       4.00006549303314537E-004
 dbg flux            1          29          29   4.9999999999900000        0.0000000000000000       3.99993450720371416E-004
 dbg flux            1          30          30   5.1999999999900002        0.0000000000000000       4.00006549303314862E-004
 dbg flux            1          31          31   5.3999999999900004        0.0000000000000000       4.00006549303363759E-004
 dbg flux            1          32          32   5.5999999999899996        0.0000000000000000       3.99993450720421560E-004
 dbg flux            1          33          33   5.7999999999899998        0.0000000000000000       4.00006549303364030E-004
 dbg flux            1          34          34   5.9999999999900000        0.0000000000000000       4.00006549303416831E-004
 dbg flux            1          35          35   6.1999999999900002        0.0000000000000000       3.99993450720478427E-004
 dbg flux            1          36          36   6.3999999999900004        0.0000000000000000       4.00006549303418945E-004
 dbg flux            1          37          37   6.5999999999899996        0.0000000000000000       4.00006549303480853E-004
 dbg flux            1          38          38   6.7999999999899998        0.0000000000000000       3.99993450720543316E-004
 dbg flux            1          39          39   6.9999999999900000        0.0000000000000000       4.00006549303483022E-004
 dbg flux            1          40          40   7.1999999999900002        0.0000000000000000       4.00006549303557832E-004
 dbg flux            1          41          41   7.3999999999900004        0.0000000000000000       3.99993450720615091E-004
 dbg flux            1          42          42   7.5999999999899996        0.0000000000000000       4.00006549303555392E-004
 dbg flux            1          43          43   7.7999999999899998        0.0000000000000000       4.00006549303639255E-004
 dbg flux            1          44          44   7.9999999999900000        0.0000000000000000       3.99993450720694834E-004
 dbg flux            1          45          45   8.1999999999900002        0.0000000000000000       4.00006549303638334E-004
 dbg flux            1          46          46   8.3999999999899995        0.0000000000000000       4.00006549303721654E-004
 dbg flux            1          47          47   8.5999999999900005        0.0000000000000000       3.99993450720779347E-004
 dbg flux            1          48          48   8.7999999999899998        0.0000000000000000       4.00006549303723335E-004
 dbg flux            1          49          49   8.9999999999900009        0.0000000000000000       4.00006549303809909E-004
 dbg flux            1          50          50   9.1999999999900002        0.0000000000000000       3.99993450720867872E-004
 dbg flux            1          51          51   9.3999999999899995        0.0000000000000000       4.00006549303815546E-004
 dbg flux            1          52          52   9.5999999999900005        0.0000000000000000       4.00006549303907378E-004
 dbg flux            1          53          53   9.7999999999899998        0.0000000000000000       3.99993450720963987E-004
 dbg flux            1          54          54   9.9999999999900009        0.0000000000000000       4.00006549303910251E-004
 dbg flux            1          55          55   10.199999999999999        0.0000000000000000       4.00006549304004523E-004
 dbg flux            1          56          56   10.400000000000000        0.0000000000000000       3.99993450721057716E-004
 dbg flux            1          57          57   10.600000000000000        0.0000000000000000       4.00006549303999752E-004
 dbg flux            1          58          58   10.800000000000001        0.0000000000000000       4.00006549304095596E-004
 dbg flux            1          59          59   11.000000000000000        0.0000000000000000       3.99993450721150036E-004
 dbg flux            1          60          60   11.199999999999999        0.0000000000000000       4.00006549304097547E-004
 dbg flux            1          61          61   11.400000000000000        0.0000000000000000       4.00006549304189867E-004
 dbg flux            1          62          62   11.600000000000000        0.0000000000000000       3.99993450721243874E-004
 dbg flux            1          63          63   11.800000000000001        0.0000000000000000       4.00006549304187265E-004
 dbg flux            1          64          64   12.000000000000000        0.0000000000000000       4.00006549304288204E-004
 dbg flux            1          65          65   12.199999999999999        0.0000000000000000       3.99993450721342699E-004
 dbg flux            1          66          66   12.400000000000000        0.0000000000000000       4.00006549304284410E-004
 dbg flux            1          67          67   12.600000000000000        0.0000000000000000       4.00006549304390282E-004
 dbg flux            1          68          68   12.800000000000001        0.0000000000000000       3.99993450721447812E-004
 dbg flux            1          69          69   13.000000000000000        0.0000000000000000       4.00006549304394239E-004
 dbg flux            1          70          70   13.199999999999999        0.0000000000000000       4.00006549304494094E-004
 dbg flux            1          71          71   13.400000000000000        0.0000000000000000       3.99993450721555365E-004
 dbg flux            1          72          72   13.600000000000000        0.0000000000000000       4.00006549304496588E-004
 dbg flux            1          73          73   13.800000000000001        0.0000000000000000       4.00006549304606309E-004
 dbg flux            1          74          74   14.000000000000000        0.0000000000000000       3.99993450721667797E-004
 dbg flux            1          75          75   14.199999999999999        0.0000000000000000       4.00006549304610700E-004
 dbg flux            1          76          76   14.400000000000000        0.0000000000000000       4.00006549304732944E-004
 dbg flux            1          77          77   14.600000000000000        0.0000000000000000       3.99993450721787384E-004
 dbg flux            1          78          78   14.800000000000001        0.0000000000000000       4.00006549304729854E-004
 dbg flux            1          79          79   15.000000000000000        0.0000000000000000       4.00006549304860934E-004
 dbg flux            1          80          80   15.199999999999999        0.0000000000000000       3.99993450721912501E-004
 dbg flux            1          81          81   15.400000000000000        0.0000000000000000       4.00006549304851718E-004
 dbg flux            1          82          82   15.600000000000000        0.0000000000000000       4.00006549304982256E-004
 dbg flux            1          83          83   15.800000000000001        0.0000000000000000       3.99993450722041738E-004
 dbg flux            1          84          84   16.000000000000000        0.0000000000000000       4.00006549304984262E-004
 dbg flux            1          85          85   16.199999999999999        0.0000000000000000       4.00006549305111873E-004
 dbg flux            1          86          86   16.399999999999999        0.0000000000000000       3.99993450722171625E-004
 dbg flux            1          87          87   16.600000000000001        0.0000000000000000       4.00006549305109813E-004
 dbg flux            1          88          88   16.800000000000001        0.0000000000000000       4.00006549305263065E-004
 dbg flux            1          89          89   17.000000000000000        0.0000000000000000       3.99993450722316421E-004
 dbg flux            1          90          90   17.199999999999999        0.0000000000000000       4.00006549305253470E-004
 dbg flux            1          91          91   17.399999999999999        0.0000000000000000       4.00006549305417997E-004
 dbg flux            1          92          92   17.600000000000001        0.0000000000000000       3.99993450722477913E-004
 dbg flux            1          93          93   17.800000000000001        0.0000000000000000       4.00006549305419136E-004
 dbg flux            1          94          94   18.000000000000000        0.0000000000000000       4.00006549305564310E-004
 dbg flux            1          95          95   18.199999999999999        0.0000000000000000       3.99993450722623955E-004
 dbg flux            1          96          96   18.399999999999999        0.0000000000000000       4.00006549305565015E-004
 dbg flux            1          97          97   18.600000000000001        0.0000000000000000       4.00006549305725531E-004
 dbg flux            1          98          98   18.800000000000001        0.0000000000000000       3.99993450722781706E-004
 dbg flux            1          99          99   19.000000000000000        0.0000000000000000       4.00006549305718646E-004
 dbg flux            1         100         100   19.199999999999999        0.0000000000000000       4.00006549305888216E-004
 dbg flux            1         101         101   19.399999999999999        0.0000000000000000       3.99993450722949486E-004
 dbg flux            1         102         102   19.600000000000001        0.0000000000000000       4.00006549305893962E-004
 dbg flux            1         103         103   19.800000000000001        0.0000000000000000       4.00006549306055942E-004
 dbg flux            1         104         104   20.000000000000000       0.49999999999900002       3.99993450723114610E-004
 dbg flux            1         105         105   19.800000000000001       1.00000000000000000       4.00006549306058056E-004
 dbg flux            1         106         106   19.600000000000001       1.00000000000000000       4.00006549306251749E-004
 dbg flux            1         107         107   19.399999999999999       1.00000000000000000       3.99993450723310146E-004
 dbg flux            1         108         108   19.199999999999999       1.00000000000000000       4.00006549306243075E-004
 dbg flux            1         109         109   19.000000000000000       1.00000000000000000       4.00006549306435900E-004
 dbg flux            1         110         110   18.800000000000001       1.00000000000000000       3.99993450723503459E-004
 dbg flux            1         111         111   18.600000000000001       1.00000000000000000       4.00006549306441755E-004
 dbg flux            1         112         112   18.399999999999999       1.00000000000000000       4.00006549306634580E-004
 dbg flux            1         113         113   18.199999999999999       1.00000000000000000       3.99993450723697586E-004
 dbg flux            1         114         114   18.000000000000000       1.00000000000000000       4.00006549306637291E-004
 dbg flux            1         115         115   17.800000000000001       1.00000000000000000       4.00006549306845512E-004
 dbg flux            1         116         116   17.600000000000001       1.00000000000000000       3.99993450723904723E-004
 dbg flux            1         117         117   17.399999999999999       1.00000000000000000       4.00006549306846217E-004
 dbg flux            1         118         118   17.199999999999999       1.00000000000000000       4.00006549307064033E-004
 dbg flux            1         119         119   17.000000000000000       1.00000000000000000       3.99993450724125683E-004
 dbg flux            1         120         120   16.800000000000001       1.00000000000000000       4.00006549307066906E-004
 dbg flux            1         121         121   16.600000000000001       1.00000000000000000       4.00006549307291932E-004
 dbg flux            1         122         122   16.399999999999999       1.00000000000000000       3.99993450724351089E-004
 dbg flux            1         123         123   16.199999999999999       1.00000000000000000       4.00006549307290414E-004
 dbg flux            1         124         124   16.000000000000000       1.00000000000000000       4.00006549307520103E-004
 dbg flux            1         125         125   15.800000000000001       1.00000000000000000       3.99993450724584734E-004
 dbg flux            1         126         126   15.600000000000000       1.00000000000000000       4.00006549307525415E-004
 dbg flux            1         127         127   15.400000000000000       1.00000000000000000       4.00006549307766054E-004
 dbg flux            1         128         128   15.199999999999999       1.00000000000000000       3.99993450724831607E-004
 dbg flux            1         129         129   15.000000000000000       1.00000000000000000       4.00006549307772451E-004
 dbg flux            1         130         130   14.800000000000001       1.00000000000000000       4.00006549308017101E-004
 dbg flux            1         131         131   14.600000000000000       1.00000000000000000       3.99993450725077016E-004
 dbg flux            1         132         132   14.400000000000000       1.00000000000000000       4.00006549308018402E-004
 dbg flux            1         133         133   14.199999999999999       1.00000000000000000       4.00006549308277580E-004
 dbg flux            1         134         134   14.000000000000000       1.00000000000000000       3.99993450725333593E-004
 dbg flux            1         135         135   13.800000000000001       1.00000000000000000       4.00006549308284790E-004
 dbg flux            1         136         136   13.600000000000000       1.00000000000000000       4.00006549308544348E-004
 dbg flux            1         137         137   13.400000000000000       1.00000000000000000       3.99993450725597921E-004
 dbg flux            1         138         138   13.199999999999999       1.00000000000000000       4.00006549308541096E-004
 dbg flux            1         139         139   13.000000000000000       1.00000000000000000       4.00006549308807051E-004
 dbg flux            1         140         140   12.800000000000001       1.00000000000000000       3.99993450725865177E-004
 dbg flux            1         141         141   12.600000000000000       1.00000000000000000       4.00006549308797455E-004
 dbg flux            1         142         142   12.400000000000000       1.00000000000000000       4.00006549309072301E-004
 dbg flux            1         143         143   12.199999999999999       1.00000000000000000       3.99993450726127445E-004
 dbg flux            1         144         144   12.000000000000000       1.00000000000000000       4.00006549309078806E-004
 dbg flux            1         145         145   11.800000000000001       1.00000000000000000       4.00006549309338906E-004
 dbg flux            1         146         146   11.600000000000000       1.00000000000000000       3.99993450726396815E-004
 dbg flux            1         147         147   11.400000000000000       1.00000000000000000       4.00006549309350127E-004
 dbg flux            1         148         148   11.199999999999999       1.00000000000000000       4.00006549310452436E-004
 dbg flux            1         149         149   11.000000000000000       1.00000000000000000       3.99993450726260857E-004
 dbg flux            1         150         150   10.800000000000001       1.00000000000000000       4.00006549309621395E-004
 dbg flux            1         151         151   10.600000000000000       1.00000000000000000       4.00006549310731455E-004
 dbg flux            1         152         152   10.400000000000000       1.00000000000000000       3.99993450726533154E-004
 dbg flux            1         153         153   10.199999999999999       1.00000000000000000       4.00006549309897487E-004
 dbg flux            1         154         154  10.0000000000000000       1.00000000000000000       4.00006549310176452E-004
 dbg flux            1         155         155   9.8000000000000007       1.00000000000000000       3.99993450727227531E-004
 dbg flux            1         156         156   9.5999999999999996       1.00000000000000000       4.00006549310179108E-004
 dbg flux            1         157         157   9.4000000000000004       1.00000000000000000       4.00006549310449021E-004
 dbg flux            1         158         158   9.1999999999999993       1.00000000000000000       3.99993450727503027E-004
 dbg flux            1         159         159   9.0000000000000000       1.00000000000000000       4.00006549310450430E-004
 dbg flux            1         160         160   8.8000000000000007       1.00000000000000000       4.00006549310720071E-004
 dbg flux            1         161         161   8.5999999999999996       1.00000000000000000       3.99993450727778685E-004
 dbg flux            1         162         162   8.4000000000000004       1.00000000000000000       4.00006549310723541E-004
 dbg flux            1         163         163   8.1999999999999993       1.00000000000000000       4.00006549311024407E-004
 dbg flux            1         164         164   8.0000000000000000       1.00000000000000000       3.99993450728079009E-004
 dbg flux            1         165         165   7.7999999999999998       1.00000000000000000       4.00006549311025220E-004
 dbg flux            1         166         166   7.5999999999999996       1.00000000000000000       4.00006549310468807E-004
 dbg flux            1         167         167   7.4000000000000004       1.00000000000000000       3.99993450729189016E-004
 dbg flux            1         168         168   7.2000000000000002       1.00000000000000000       4.00006549310471138E-004
 dbg flux            1         169         169   7.0000000000000000       1.00000000000000000       4.00006549310741864E-004
 dbg flux            1         170         170   6.7999999999999998       1.00000000000000000       3.99993450729464078E-004
 dbg flux            1         171         171   6.5999999999999996       1.00000000000000000       4.00006549310754603E-004
 dbg flux            1         172         172   6.4000000000000004       1.00000000000000000       4.00006549311865964E-004
 dbg flux            1         173         173   6.2000000000000002       1.00000000000000000       3.99993450728921977E-004
 dbg flux            1         174         174   6.0000000000000000       1.00000000000000000       4.00006549311874475E-004
 dbg flux            1         175         175   5.7999999999999998       1.00000000000000000       4.00006549312147640E-004
 dbg flux            1         176         176   5.5999999999999996       1.00000000000000000       3.99993450729208477E-004
 dbg flux            1         177         177   5.4000000000000004       1.00000000000000000       4.00006549312156856E-004
 dbg flux            1         178         178   5.2000000000000002       1.00000000000000000       4.00006549312439724E-004
 dbg flux            1         179         179   5.0000000000000000       1.00000000000000000       3.99993450729500182E-004
 dbg flux            1         180         180   4.7999999999999998       1.00000000000000000       4.00006549312446934E-004
 dbg flux            1         181         181   4.5999999999999996       1.00000000000000000       4.00006549312731483E-004
 dbg flux            1         182         182   4.4000000000000004       1.00000000000000000       3.99993450729790043E-004
 dbg flux            1         183         183   4.2000000000000002       1.00000000000000000       4.00006549312744005E-004
 dbg flux            1         184         184   4.0000000000000000       1.00000000000000000       4.00006549313020260E-004
 dbg flux            1         185         185   3.7999999999999998       1.00000000000000000       3.99993450730071827E-004
 dbg flux            1         186         186   3.6000000000000001       1.00000000000000000       4.00006549313026820E-004
 dbg flux            1         187         187   3.3999999999999999       1.00000000000000000       4.00006549313291365E-004
 dbg flux            1         188         188   3.2000000000000002       1.00000000000000000       3.99993450730351334E-004
 dbg flux            1         189         189   3.0000000000000000       1.00000000000000000       4.00006549313299659E-004
 dbg flux            1         190         190   2.7999999999999998       1.00000000000000000       4.00006549313573962E-004
 dbg flux            1         191         191   2.6000000000000001       1.00000000000000000       3.99993450730635829E-004
 dbg flux            1         192         192   2.3999999999999999       1.00000000000000000       4.00006549313597435E-004
 dbg flux            1         193         193   2.2000000000000002       1.00000000000000000       4.00006549313871576E-004
 dbg flux            1         194         194   2.0000000000000000       1.00000000000000000       3.99993450730919673E-004
 dbg flux            1         195         195   1.8000000000000000       1.00000000000000000       4.00006549313882851E-004
 dbg flux            1         196         196   1.6000000000000001       1.00000000000000000       4.00006549314145283E-004
 dbg flux            1         197         197   1.3999999999999999       1.00000000000000000       3.99993450731200373E-004
 dbg flux            1         198         198   1.2000000000000000       1.00000000000000000       4.00006549314159919E-004
 dbg flux            1         199         199  1.00000000000000000       1.00000000000000000       4.00006549314423326E-004
 dbg flux            1         200         200  0.80000000000100002       1.00000000000000000       3.99993450731482699E-004
 dbg flux            1         201         201  0.60000000000099996       1.00000000000000000       4.00006549314435578E-004
 dbg flux            1         202         202  0.40000000000000002       1.00000000000000000       4.00006549314694756E-004
 dbg flux            1         203         203  0.20000000000000001       1.00000000000000000       3.99993450731748817E-004
 dbg flux            1         204         204   0.0000000000000000       0.50000000000099998       4.00006549314701424E-004
 dbg flux            1         205         205  0.20000000000000001       0.50000000000099998       4.00006549314964560E-004
 dbg flux            1         206         206  0.40000000000000002       0.50000000000000000       3.99993450732014989E-004
 dbg flux            1         207         207  0.59999999999999998       0.50000000000000000       4.00006549314964994E-004
 dbg flux            1         208         208  0.80000000000000004       0.50000000000000000       4.00006549315233334E-004
 dbg flux            1         209         209  0.99999999999900002       0.50000000000000000       3.99993450732296068E-004
 dbg flux            1         210         210   1.2000000000000000       0.50000000000000000       4.00006549315248838E-004
 dbg flux            1         211         211   1.3999999999999999       0.50000000000000000       4.00006549315510185E-004
 dbg flux            1         212         212   1.6000000000000001       0.50000000000000000       3.99993450732566847E-004
 dbg flux            1         213         213   1.8000000000000000       0.50000000000000000       4.00006549315524171E-004
 dbg flux            1         214         214   2.0000000000000000       0.50000000000000000       4.00006549315809479E-004
 dbg flux            1         215         215   2.2000000000000002       0.50000000000000000       3.99993450732854649E-004
 dbg flux            1         216         216   2.3999999999999999       0.50000000000000000       4.00006549315793866E-004
 dbg flux            1         217         217   2.6000000000000001       0.50000000000000000       4.00006549316082752E-004
 dbg flux            1         218         218   2.7999999999999998       0.50000000000000000       3.99993450733143372E-004
 dbg flux            1         219         219   3.0000000000000000       0.50000000000000000       4.00006549316081126E-004
 dbg flux            1         220         220   3.2000000000000002       0.50000000000000000       4.00006549316361229E-004
 dbg flux            1         221         221   3.3999999999999999       0.50000000000000000       3.99993450733410628E-004
 dbg flux            1         222         222   3.6000000000000001       0.50000000000000000       4.00006549316365187E-004
 dbg flux            1         223         223   3.7999999999999998       0.50000000000000000       4.00006549316647621E-004
 dbg flux            1         224         224   4.0000000000000000       0.50000000000000000       3.99993450733688780E-004
 dbg flux            1         225         225   4.2000000000000002       0.50000000000000000       4.00006549316646049E-004
 dbg flux            1         226         226   4.4000000000000004       0.50000000000000000       4.00006549316931194E-004
 dbg flux            1         227         227   4.5999999999999996       0.50000000000000000       3.99993450733975063E-004
 dbg flux            1         228         228   4.7999999999999998       0.50000000000000000       4.00006549316924852E-004
 dbg flux            1         229         229   5.0000000000000000       0.50000000000000000       4.00006549317215038E-004
 dbg flux            1         230         230   5.2000000000000002       0.50000000000000000       3.99993450734246331E-004
 dbg flux            1         231         231   5.4000000000000004       0.50000000000000000       4.00006549317193517E-004
 dbg flux            1         232         232   5.5999999999999996       0.50000000000000000       4.00006549317470856E-004
 dbg flux            1         233         233   5.7999999999999998       0.50000000000000000       3.99993450734502961E-004
 dbg flux            1         234         234   6.0000000000000000       0.50000000000000000       4.00006549317460393E-004
 dbg flux            1         235         235   6.2000000000000002       0.50000000000000000       4.00006549317709272E-004
 dbg flux            1         236         236   6.4000000000000004       0.50000000000000000       3.99993450734742028E-004
 dbg flux            1         237         237   6.5999999999999996       0.50000000000000000       4.00006549317708784E-004
 dbg flux            1         238         238   6.7999999999999998       0.50000000000000000       4.00006549317941888E-004
 dbg flux            1         239         239   7.0000000000000000       0.50000000000000000       3.99993450734968138E-004
 dbg flux            1         240         240   7.2000000000000002       0.50000000000000000       4.00006549317927034E-004
 dbg flux            1         241         241   7.4000000000000004       0.50000000000000000       4.00006549318146693E-004
 dbg flux            1         242         242   7.5999999999999996       0.50000000000000000       3.99993450735176793E-004
 dbg flux            1         243         243   7.7999999999999998       0.50000000000000000       4.00006549318131460E-004
 dbg flux            1         244         244   8.0000000000000000       0.50000000000000000       4.00006549318321358E-004
 dbg flux            1         245         245   8.1999999999999993       0.50000000000000000       3.99993450735364306E-004
 dbg flux            1         246         246   8.4000000000000004       0.50000000000000000       4.00006549318325316E-004
 dbg flux            1         247         247   8.5999999999999996       0.50000000000000000       4.00006549318496240E-004
 dbg flux            1         248         248   8.8000000000000007       0.50000000000000000       3.99993450735551548E-004
 dbg flux            1         249         249   8.9999999999900009       0.50000000000000000       4.00006549318508492E-004
 dbg flux            1         250         250   9.1999999999900002       0.50000000000000000       4.00006549318686138E-004
 dbg flux            1         251         251   9.3999999999899995       0.50000000000000000       3.99993450735738464E-004
 dbg flux            1         252         252   9.5999999999900005       0.50000000000000000       4.00006549318679850E-004
 dbg flux            1         253         253   9.7999999999899998       0.50000000000000000       4.00006549318866658E-004
 dbg flux            1         254         254   9.9999999999900009       0.50000000000000000       3.99993450735917195E-004
 dbg flux            1         255         255   10.199999999999999       0.50000000000000000       4.00006549318858093E-004
 dbg flux            1         256         256   10.400000000000000       0.50000000000000000       4.00006549319046202E-004
 dbg flux            1         257         257   10.600000000000000       0.50000000000000000       3.99993450736100967E-004
 dbg flux            1         258         258   10.800000000000001       0.50000000000000000       4.00006549319050755E-004
 dbg flux            1         259         259   11.000000000000000       0.50000000000000000       4.00006549319250682E-004
 dbg flux            1         260         260   11.199999999999999       0.50000000000000000       3.99993450736299647E-004
 dbg flux            1         261         261   11.400000000000000       0.50000000000000000       4.00006549319244231E-004
 dbg flux            1         262         262   11.600000000000000       0.50000000000000000       4.00006549319462590E-004
 dbg flux            1         263         263   11.800000000000001       0.50000000000000000       3.99993450736080855E-004
 dbg flux            1         264         264   12.000000000000000       0.50000000000000000       4.00006549320282626E-004
 dbg flux            1         265         265   12.199999999999999       0.50000000000000000       4.00006549319654764E-004
 dbg flux            1         266         266   12.400000000000000       0.50000000000000000       3.99993450736261971E-004
 dbg flux            1         267         267   12.600000000000000       0.50000000000000000       4.00006549320493557E-004
 dbg flux            1         268         268   12.800000000000001       0.50000000000000000       4.00006549319826394E-004
 dbg flux            1         269         269   13.000000000000000       0.50000000000000000       3.99993450736847278E-004
 dbg flux            1         270         270   13.199999999999999       0.50000000000000000       4.00006549319827749E-004
 dbg flux            1         271         271   13.400000000000000       0.50000000000000000       4.00006549319950426E-004
 dbg flux            1         272         272   13.600000000000000       0.50000000000000000       3.99993450736971744E-004
 dbg flux            1         273         273   13.800000000000001       0.50000000000000000       4.00006549319953354E-004
 dbg flux            1         274         274   14.000000000000000       0.50000000000000000       4.00006549320022743E-004
 dbg flux            1         275         275   14.199999999999999       0.50000000000000000       3.99993450737049536E-004
 dbg flux            1         276         276   14.400000000000000       0.50000000000000000       4.00006549320036458E-004
 dbg flux            1         277         277   14.600000000000000       0.50000000000000000       4.00006549320081127E-004
 dbg flux            1         278         278   14.800000000000001       0.50000000000000000       3.99993450737116973E-004
 dbg flux            1         279         279   15.000000000000000       0.50000000000000000       4.00006549320076790E-004
 dbg flux            1         280         280   15.199999999999999       0.50000000000000000       4.00006549320117773E-004
 dbg flux            1         281         281   15.400000000000000       0.50000000000000000       3.99993450737159528E-004
 dbg flux            1         282         282   15.600000000000000       0.50000000000000000       4.00006549320101944E-004
 dbg flux            1         283         283   15.800000000000001       0.50000000000000000       4.00006549320226085E-004
 dbg flux            1         284         284   16.000000000000000       0.50000000000000000       3.99993450737198668E-004
 dbg flux            1         285         285   16.199999999999999       0.50000000000000000       4.00006549320040036E-004
 dbg flux            1         286         286   16.399999999999999       0.50000000000000000       4.00006549320280186E-004
 dbg flux            1         287         287   16.600000000000001       0.50000000000000000       3.99993450737305841E-004
 dbg flux            1         288         288   16.800000000000001       0.50000000000000000       4.00006549320023718E-004
 dbg flux            1         289         289   17.000000000000000       0.50000000000000000       4.00006549320286583E-004
 dbg flux            1         290         290   17.199999999999999       0.50000000000000000       3.99993450737333976E-004
 dbg flux            1         291         291   17.399999999999999       0.50000000000000000       4.00006549320267989E-004
 dbg flux            1         292         292   17.600000000000001       0.50000000000000000       4.00006549320297642E-004
 dbg flux            1         293         293   17.800000000000001       0.50000000000000000       3.99993450737415020E-004
 dbg flux            1         294         294   18.000000000000000       0.50000000000000000       4.00006549320438155E-004
 dbg flux            1         295         295   18.199999999999999       0.50000000000000000       4.00006549320352882E-004
 dbg flux            1         296         296   18.399999999999999       0.50000000000000000       4.00002370406344590E-004
 dbg flux            1         297         297   18.600000000000001       0.50000000000000000       4.00017619954214608E-004
 dbg flux            1         298         298   18.800000000000001       0.50000000000000000       3.99993450737487391E-004
 dbg flux            1         299         299   19.000000000000000       0.50000000000000000       4.00006549320577041E-004
 dbg flux            1         300         300   19.199999999999999       0.50000000000000000       3.99989723957508425E-004
 dbg flux            1         301         301   19.399999999999999       0.50000000000000000       3.99998191492084492E-004
 dbg flux            1         302         302   19.600000000000001       0.50000000000000000       4.00002370406356516E-004
 dbg flux            1         303         303   19.800000000000001       0.49999999999900002       4.00017619954214608E-004
      10 0.1089E+04
      20 0.1088E+01
      28 0.4025E-02
ComputeChange: NS (NRM,RELC): (  0.302141636677E-15   2.00000000000     ) :: computeflux
 dbg flux            2           1           2   0.0000000000000000        0.0000000000000000       5.61182001670510585E-019
 dbg flux            2           2           3   20.000000000000000        0.0000000000000000      -2.22597653469841617E-018
 dbg flux            2           3           4   20.000000000000000       1.00000000000000000       1.32402921837622763E-018
 dbg flux            2           4           5   0.0000000000000000       1.00000000000000000       3.05377265325548804E-018
 dbg flux            2           5           6  0.20000000000000001        0.0000000000000000       1.77451443013027717E-018
 dbg flux            2           6           7  0.39999999999899999        0.0000000000000000       6.06374218758314746E-018
 dbg flux            2           7           8  0.59999999999900000        0.0000000000000000       9.91632501013789828E-018
 dbg flux            2           8           9  0.79999999999799998        0.0000000000000000       8.30038078594276380E-018
 dbg flux            2           9          10  0.99999999999800004        0.0000000000000000       9.89763239039067453E-018
 dbg flux            2          10          11   1.2000000000000000        0.0000000000000000       1.94181941567533674E-017
 dbg flux            2          11          12   1.3999999999999999        0.0000000000000000       1.55227702785844248E-018
 dbg flux            2          12          13   1.6000000000000001        0.0000000000000000      -1.63334772414205238E-017
 dbg flux            2          13          14   1.8000000000000000        0.0000000000000000       3.35750884495864815E-017
 dbg flux            2          14          15   2.0000000000000000        0.0000000000000000      -1.42747009790086400E-018
 dbg flux            2          15          16   2.2000000000000002        0.0000000000000000      -4.14888725511585202E-017
 dbg flux            2          16          17   2.3999999999999999        0.0000000000000000       5.53439674299005477E-017
 dbg flux            2          17          18   2.5999999999900001        0.0000000000000000       1.83153802158031020E-018
 dbg flux            2          18          19   2.7999999999899998        0.0000000000000000      -6.00676695202427239E-017
 dbg flux            2          19          20   2.9999999999900000        0.0000000000000000       6.69490899473779727E-017
 dbg flux            2          20          21   3.1999999999900002        0.0000000000000000       2.53437172098022366E-018
 dbg flux            2          21          22   3.3999999999899999        0.0000000000000000      -7.06833506040364996E-017
 dbg flux            2          22          23   3.5999999999900001        0.0000000000000000       7.55917586422510696E-017
 dbg flux            2          23          24   3.7999999999899998        0.0000000000000000      -7.19596149211769239E-019
 dbg flux            2          24          25   3.9999999999900000        0.0000000000000000      -7.60230992928191553E-017
 dbg flux            2          25          26   4.1999999999900002        0.0000000000000000       8.04248824168239278E-017
 dbg flux            2          26          27   4.3999999999900004        0.0000000000000000      -7.94294503986235787E-018
 dbg flux            2          27          28   4.5999999999899996        0.0000000000000000      -8.27907691086951225E-017
 dbg flux            2          28          29   4.7999999999899998        0.0000000000000000       9.00849752327901469E-017
 dbg flux            2          29          30   4.9999999999900000        0.0000000000000000      -7.00537730680447213E-018
 dbg flux            2          30          31   5.1999999999900002        0.0000000000000000      -9.43046950183087385E-017
 dbg flux            2          31          32   5.3999999999900004        0.0000000000000000       9.13580692820978327E-017
 dbg flux            2          32          33   5.5999999999899996        0.0000000000000000      -6.32901949266482705E-019
 dbg flux            2          33          34   5.7999999999899998        0.0000000000000000      -1.05880693862893778E-016
 dbg flux            2          34          35   5.9999999999900000        0.0000000000000000       1.02700027899028715E-016
 dbg flux            2          35          36   6.1999999999900002        0.0000000000000000       9.36575042748121373E-020
 dbg flux            2          36          37   6.3999999999900004        0.0000000000000000      -1.24983292796963641E-016
 dbg flux            2          37          38   6.5999999999899996        0.0000000000000000       1.39877048556366874E-016
 dbg flux            2          38          39   6.7999999999899998        0.0000000000000000      -1.33190346317487651E-017
 dbg flux            2          39          40   6.9999999999900000        0.0000000000000000      -1.19605729525584909E-016
 dbg flux            2          40          41   7.1999999999900002        0.0000000000000000       1.32489651875917418E-016
 dbg flux            2          41          42   7.3999999999900004        0.0000000000000000       5.11845746496908315E-018
 dbg flux            2          42          43   7.5999999999899996        0.0000000000000000      -1.62429403088367067E-016
 dbg flux            2          43          44   7.7999999999899998        0.0000000000000000       1.55559620423042070E-016
 dbg flux            2          44          45   7.9999999999900000        0.0000000000000000      -7.90144039665681753E-018
 dbg flux            2          45          46   8.1999999999900002        0.0000000000000000      -1.50298113582173433E-016
 dbg flux            2          46          47   8.3999999999899995        0.0000000000000000       1.54169452868845350E-016
 dbg flux            2          47          48   8.5999999999900005        0.0000000000000000      -2.76362654024395848E-018
 dbg flux            2          48          49   8.7999999999899998        0.0000000000000000      -1.67546792757297700E-016
 dbg flux            2          49          50   8.9999999999900009        0.0000000000000000       1.66906610291798913E-016
 dbg flux            2          50          51   9.1999999999900002        0.0000000000000000      -3.49088927531280993E-018
 dbg flux            2          51          52   9.3999999999899995        0.0000000000000000      -1.72062124663237120E-016
 dbg flux            2          52          53   9.5999999999900005        0.0000000000000000       1.72120146304144033E-016
 dbg flux            2          53          54   9.7999999999899998        0.0000000000000000       9.28204543647531047E-020
 dbg flux            2          54          55   9.9999999999900009        0.0000000000000000      -1.72726725345309510E-016
 dbg flux            2          55          56   10.199999999999999        0.0000000000000000       1.76607528546511456E-016
 dbg flux            2          56          57   10.400000000000000        0.0000000000000000      -3.94144781736294955E-018
 dbg flux            2          57          58   10.600000000000000        0.0000000000000000      -1.84572740619683727E-016
 dbg flux            2          58          59   10.800000000000001        0.0000000000000000       1.82145688893250754E-016
 dbg flux            2          59          60   11.000000000000000        0.0000000000000000      -1.46385124134161185E-018
 dbg flux            2          60          61   11.199999999999999        0.0000000000000000      -1.85083956199359562E-016
 dbg flux            2          61          62   11.400000000000000        0.0000000000000000       1.85026882141260835E-016
 dbg flux            2          62          63   11.600000000000000        0.0000000000000000      -2.80385424789305667E-020
 dbg flux            2          63          64   11.800000000000001        0.0000000000000000      -1.85148058425442227E-016
 dbg flux            2          64          65   12.000000000000000        0.0000000000000000       1.89394133913549924E-016
 dbg flux            2          65          66   12.199999999999999        0.0000000000000000      -7.64620790043368448E-018
 dbg flux            2          66          67   12.400000000000000        0.0000000000000000      -2.04356313231168455E-016
 dbg flux            2          67          68   12.600000000000000        0.0000000000000000       1.97178612909713927E-016
 dbg flux            2          68          69   12.800000000000001        0.0000000000000000      -1.74675233879422396E-018
 dbg flux            2          69          70   13.000000000000000        0.0000000000000000      -2.00455431847430511E-016
 dbg flux            2          70          71   13.199999999999999        0.0000000000000000       2.04946499540594646E-016
 dbg flux            2          71          72   13.400000000000000        0.0000000000000000      -8.16431685114335344E-019
 dbg flux            2          72          73   13.600000000000000        0.0000000000000000      -2.06205999061245374E-016
 dbg flux            2          73          74   13.800000000000001        0.0000000000000000       2.22728117085698749E-016
 dbg flux            2          74          75   14.000000000000000        0.0000000000000000      -2.30281510785205087E-018
 dbg flux            2          75          76   14.199999999999999        0.0000000000000000      -2.27294854679802941E-016
 dbg flux            2          76          77   14.400000000000000        0.0000000000000000       2.26026978217154335E-016
 dbg flux            2          77          78   14.600000000000000        0.0000000000000000      -3.01083452862581042E-018
 dbg flux            2          78          79   14.800000000000001        0.0000000000000000      -2.32271070931071553E-016
 dbg flux            2          79          80   15.000000000000000        0.0000000000000000       2.33630809032162199E-016
 dbg flux            2          80          81   15.199999999999999        0.0000000000000000      -4.90026848884514550E-018
 dbg flux            2          81          82   15.400000000000000        0.0000000000000000      -2.42710232131735089E-016
 dbg flux            2          82          83   15.600000000000000        0.0000000000000000       2.36944635362358143E-016
 dbg flux            2          83          84   15.800000000000001        0.0000000000000000      -6.49964433881101924E-018
 dbg flux            2          84          85   16.000000000000000        0.0000000000000000      -2.50423113788431643E-016
 dbg flux            2          85          86   16.199999999999999        0.0000000000000000       2.59216263291901453E-016
 dbg flux            2          86          87   16.399999999999999        0.0000000000000000      -2.63331231706257921E-018
 dbg flux            2          87          88   16.600000000000001        0.0000000000000000      -2.64354560221046580E-016
 dbg flux            2          88          89   16.800000000000001        0.0000000000000000       2.68923325399169024E-016
 dbg flux            2          89          90   17.000000000000000        0.0000000000000000      -6.35972164556460904E-018
 dbg flux            2          90          91   17.199999999999999        0.0000000000000000      -2.81513736390042612E-016
 dbg flux            2          91          92   17.399999999999999        0.0000000000000000       2.74564147662795017E-016
 dbg flux            2          92          93   17.600000000000001        0.0000000000000000      -7.83002781190839932E-018
 dbg flux            2          93          94   17.800000000000001        0.0000000000000000      -2.90393640881981652E-016
 dbg flux            2          94          95   18.000000000000000        0.0000000000000000       2.95119608043297156E-016
 dbg flux            2          95          96   18.199999999999999        0.0000000000000000      -6.68314690944517186E-018
 dbg flux            2          96          97   18.399999999999999        0.0000000000000000      -3.07894837952067861E-016
 dbg flux            2          97          98   18.600000000000001        0.0000000000000000       3.02912041487642576E-016
 dbg flux            2          98          99   18.800000000000001        0.0000000000000000      -7.15498307760219001E-018
 dbg flux            2          99         100   19.000000000000000        0.0000000000000000      -3.17332565708697849E-016
 dbg flux            2         100         101   19.199999999999999        0.0000000000000000       3.17600865529595966E-016
 dbg flux            2         101         102   19.399999999999999        0.0000000000000000      -1.07805760029387846E-017
 dbg flux            2         102         103   19.600000000000001        0.0000000000000000      -3.38803877935633984E-016
 dbg flux            2         103         104   19.800000000000001        0.0000000000000000       3.28000932214538439E-016
 dbg flux            2         104         105   20.000000000000000       0.49999999999900002      -3.76138094034764172E-018
 dbg flux            2         105         106   19.800000000000001       1.00000000000000000      -3.36147039286767180E-016
 dbg flux            2         106         107   19.600000000000001       1.00000000000000000       3.39388363954038358E-016
 dbg flux            2         107         108   19.399999999999999       1.00000000000000000      -9.46059096481805790E-018
 dbg flux            2         108         109   19.199999999999999       1.00000000000000000      -3.57964229850518777E-016
 dbg flux            2         109         110   19.000000000000000       1.00000000000000000       3.62498171488935523E-016
 dbg flux            2         110         111   18.800000000000001       1.00000000000000000      -8.31754444087973435E-018
 dbg flux            2         111         112   18.600000000000001       1.00000000000000000      -3.79210095205917383E-016
 dbg flux            2         112         113   18.399999999999999       1.00000000000000000       3.90250493250661145E-016
 dbg flux            2         113         114   18.199999999999999       1.00000000000000000      -4.57392974105271082E-018
 dbg flux            2         114         115   18.000000000000000       1.00000000000000000      -3.98978295525530544E-016
 dbg flux            2         115         116   17.800000000000001       1.00000000000000000       3.98831258185660233E-016
 dbg flux            2         116         117   17.600000000000001       1.00000000000000000      -6.01072362386876204E-018
 dbg flux            2         117         118   17.399999999999999       1.00000000000000000      -4.11899985138210452E-016
 dbg flux            2         118         119   17.199999999999999       1.00000000000000000       4.15286295189204310E-016
 dbg flux            2         119         120   17.000000000000000       1.00000000000000000      -4.18580298913682738E-018
 dbg flux            2         120         121   16.800000000000001       1.00000000000000000      -4.22346319674603428E-016
 dbg flux            2         121         122   16.600000000000001       1.00000000000000000       4.32813581309904739E-016
 dbg flux            2         122         123   16.399999999999999       1.00000000000000000      -3.17665693656623323E-018
 dbg flux            2         123         124   16.199999999999999       1.00000000000000000      -4.39491136932791270E-016
 dbg flux            2         124         125   16.000000000000000       1.00000000000000000       4.44086824612665414E-016
 dbg flux            2         125         126   15.800000000000001       1.00000000000000000      -4.03959688257578973E-018
 dbg flux            2         126         127   15.600000000000000       1.00000000000000000      -4.52469635967480117E-016
 dbg flux            2         127         128   15.400000000000000       1.00000000000000000       4.67843019007344151E-016
 dbg flux            2         128         129   15.199999999999999       1.00000000000000000      -1.25132019068598993E-018
 dbg flux            2         129         130   15.000000000000000       1.00000000000000000      -4.70158156298669728E-016
 dbg flux            2         130         131   14.800000000000001       1.00000000000000000       4.83585095937603026E-016
 dbg flux            2         131         132   14.600000000000000       1.00000000000000000      -6.44355195459381473E-020
 dbg flux            2         132         133   14.400000000000000       1.00000000000000000      -4.83122788582863586E-016
 dbg flux            2         133         134   14.199999999999999       1.00000000000000000       4.93318598909254306E-016
 dbg flux            2         134         135   14.000000000000000       1.00000000000000000      -1.32069381880944960E-018
 dbg flux            2         135         136   13.800000000000001       1.00000000000000000      -4.96054898460568265E-016
 dbg flux            2         136         137   13.600000000000000       1.00000000000000000       4.90893724089985931E-016
 dbg flux            2         137         138   13.400000000000000       1.00000000000000000       3.89116362465714825E-018
 dbg flux            2         138         139   13.199999999999999       1.00000000000000000      -4.83726348307523027E-016
 dbg flux            2         139         140   13.000000000000000       1.00000000000000000       5.03588833358111432E-016
 dbg flux            2         140         141   12.800000000000001       1.00000000000000000      -3.42175388813394064E-018
 dbg flux            2         141         142   12.600000000000000       1.00000000000000000      -5.10136840232770291E-016
 dbg flux            2         142         143   12.400000000000000       1.00000000000000000       5.20216855820095236E-016
 dbg flux            2         143         144   12.199999999999999       1.00000000000000000      -2.36261543025572364E-018
 dbg flux            2         144         145   12.000000000000000       1.00000000000000000      -5.25110248808150607E-016
 dbg flux            2         145         146   11.800000000000001       1.00000000000000000       5.06847831464976862E-016
 dbg flux            2         146         147   11.600000000000000       1.00000000000000000       7.29852439232239628E-019
 dbg flux            2         147         148   11.400000000000000       1.00000000000000000      -5.06074779441015415E-016
 dbg flux            2         148         149   11.199999999999999       1.00000000000000000       5.27915110929913377E-016
 dbg flux            2         149         150   11.000000000000000       1.00000000000000000       3.28561587946711152E-018
 dbg flux            2         150         151   10.800000000000001       1.00000000000000000      -5.19360093425375854E-016
 dbg flux            2         151         152   10.600000000000000       1.00000000000000000       5.25178007320789094E-016
 dbg flux            2         152         153   10.400000000000000       1.00000000000000000       1.29107378031297187E-018
 dbg flux            2         153         154   10.199999999999999       1.00000000000000000      -5.20267369152071213E-016
 dbg flux            2         154         155  10.0000000000000000       1.00000000000000000       5.26266132075754822E-016
 dbg flux            2         155         156   9.8000000000000007       1.00000000000000000       4.34900085657855085E-018
 dbg flux            2         156         157   9.5999999999999996       1.00000000000000000      -5.19010330354371471E-016
 dbg flux            2         157         158   9.4000000000000004       1.00000000000000000       5.18278655282654146E-016
 dbg flux            2         158         159   9.1999999999999993       1.00000000000000000       4.20560047282196681E-018
 dbg flux            2         159         160   9.0000000000000000       1.00000000000000000      -5.11781154960495813E-016
 dbg flux            2         160         161   8.8000000000000007       1.00000000000000000       5.31429633843299670E-016
 dbg flux            2         161         162   8.5999999999999996       1.00000000000000000       4.04967170270418997E-018
 dbg flux            2         162         163   8.4000000000000004       1.00000000000000000      -5.21562244447494078E-016
 dbg flux            2         163         164   8.1999999999999993       1.00000000000000000       5.37755476411495123E-016
 dbg flux            2         164         165   8.0000000000000000       1.00000000000000000       6.23515193713431946E-018
 dbg flux            2         165         166   7.7999999999999998       1.00000000000000000      -5.26380042419288464E-016
 dbg flux            2         166         167   7.5999999999999996       1.00000000000000000       5.37184048294152924E-016
 dbg flux            2         167         168   7.4000000000000004       1.00000000000000000       4.37270369472478980E-018
 dbg flux            2         168         169   7.2000000000000002       1.00000000000000000      -5.28220923718288939E-016
 dbg flux            2         169         170   7.0000000000000000       1.00000000000000000       5.40539511842290270E-016
 dbg flux            2         170         171   6.7999999999999998       1.00000000000000000       6.83855924643730945E-018
 dbg flux            2         171         172   6.5999999999999996       1.00000000000000000      -5.25285738933313505E-016
 dbg flux            2         172         173   6.4000000000000004       1.00000000000000000       5.34106624412555431E-016
 dbg flux            2         173         174   6.2000000000000002       1.00000000000000000       1.18495996275854185E-017
 dbg flux            2         174         175   6.0000000000000000       1.00000000000000000      -5.10418990720590815E-016
 dbg flux            2         175         176   5.7999999999999998       1.00000000000000000       5.39945610811719461E-016
 dbg flux            2         176         177   5.5999999999999996       1.00000000000000000       1.06543734744598616E-017
 dbg flux            2         177         178   5.4000000000000004       1.00000000000000000      -5.17526910428978039E-016
 dbg flux            2         178         179   5.2000000000000002       1.00000000000000000       5.55635127217102234E-016
 dbg flux            2         179         180   5.0000000000000000       1.00000000000000000       1.61390690329900078E-017
 dbg flux            2         180         181   4.7999999999999998       1.00000000000000000      -5.21301186748841019E-016
 dbg flux            2         181         182   4.5999999999999996       1.00000000000000000       5.62149685155179226E-016
 dbg flux            2         182         183   4.4000000000000004       1.00000000000000000       1.51262365625382490E-017
 dbg flux            2         183         184   4.2000000000000002       1.00000000000000000      -5.35358146115323324E-016
 dbg flux            2         184         185   4.0000000000000000       1.00000000000000000       5.65131041861432760E-016
 dbg flux            2         185         186   3.7999999999999998       1.00000000000000000       2.21854734833893559E-017
 dbg flux            2         186         187   3.6000000000000001       1.00000000000000000      -5.18080359359264950E-016
 dbg flux            2         187         188   3.3999999999999999       1.00000000000000000       5.52761590775095916E-016
 dbg flux            2         188         189   3.2000000000000002       1.00000000000000000       1.89906586642621994E-017
 dbg flux            2         189         190   3.0000000000000000       1.00000000000000000      -5.15470340775660610E-016
 dbg flux            2         190         191   2.7999999999999998       1.00000000000000000       5.79937288358964714E-016
 dbg flux            2         191         192   2.6000000000000001       1.00000000000000000       2.69377268601586168E-017
 dbg flux            2         192         193   2.3999999999999999       1.00000000000000000      -5.26002448950688897E-016
 dbg flux            2         193         194   2.2000000000000002       1.00000000000000000       5.61239285512716650E-016
 dbg flux            2         194         195   2.0000000000000000       1.00000000000000000       3.23635003598070351E-017
 dbg flux            2         195         196   1.8000000000000000       1.00000000000000000      -4.96706280119136750E-016
 dbg flux            2         196         197   1.6000000000000001       1.00000000000000000       5.54142697663774106E-016
 dbg flux            2         197         198   1.3999999999999999       1.00000000000000000       3.36767314115858392E-017
 dbg flux            2         198         199   1.2000000000000000       1.00000000000000000      -4.84746163416841694E-016
 dbg flux            2         199         200  1.00000000000000000       1.00000000000000000       5.55303893223379100E-016
 dbg flux            2         200         201  0.80000000000100002       1.00000000000000000       4.20759747196966815E-017
 dbg flux            2         201         202  0.60000000000099996       1.00000000000000000      -4.71123060260175293E-016
 dbg flux            2         202         203  0.40000000000000002       1.00000000000000000       5.62038663898782028E-016
 dbg flux            2         203         204  0.20000000000000001       1.00000000000000000       3.98855839964019422E-017
 dbg flux            2         204         205   0.0000000000000000       0.50000000000099998      -4.80795337260484863E-016
 dbg flux            2         205         206  0.20000000000000001       0.50000000000099998       5.52514856474166257E-016
 dbg flux            2         206         207  0.40000000000000002       0.50000000000000000       4.61502858742177441E-017
 dbg flux            2         207         208  0.59999999999999998       0.50000000000000000      -4.60325627968668896E-016
 dbg flux            2         208         209  0.80000000000000004       0.50000000000000000       5.58481429206590911E-016
 dbg flux            2         209         210  0.99999999999900002       0.50000000000000000       4.34492285599693607E-017
 dbg flux            2         210         211   1.2000000000000000       0.50000000000000000      -4.73018063621195577E-016
 dbg flux            2         211         212   1.3999999999999999       0.50000000000000000       5.73714627640462170E-016
 dbg flux            2         212         213   1.6000000000000001       0.50000000000000000       5.59724172565873992E-017
 dbg flux            2         213         214   1.8000000000000000       0.50000000000000000      -4.64483156997911757E-016
 dbg flux            2         214         215   2.0000000000000000       0.50000000000000000       5.60296968950078305E-016
 dbg flux            2         215         216   2.2000000000000002       0.50000000000000000       4.93477084517758091E-017
 dbg flux            2         216         217   2.3999999999999999       0.50000000000000000      -4.56489897653193304E-016
 dbg flux            2         217         218   2.6000000000000001       0.50000000000000000       5.69861581522102153E-016
 dbg flux            2         218         219   2.7999999999999998       0.50000000000000000       4.44402584834207617E-017
 dbg flux            2         219         220   3.0000000000000000       0.50000000000000000      -4.84429266835378079E-016
 dbg flux            2         220         221   3.2000000000000002       0.50000000000000000       5.95009310517312603E-016
 dbg flux            2         221         222   3.3999999999999999       0.50000000000000000       4.77177230706294373E-017
 dbg flux            2         222         223   3.6000000000000001       0.50000000000000000      -4.95022293574131632E-016
 dbg flux            2         223         224   3.7999999999999998       0.50000000000000000       5.54603750947047233E-016
 dbg flux            2         224         225   4.0000000000000000       0.50000000000000000       4.56712658546894726E-017
 dbg flux            2         225         226   4.2000000000000002       0.50000000000000000      -4.63566487006181552E-016
 dbg flux            2         226         227   4.4000000000000004       0.50000000000000000       5.54202649236776116E-016
 dbg flux            2         227         228   4.5999999999999996       0.50000000000000000       4.61443913685529944E-017
 dbg flux            2         228         229   4.7999999999999998       0.50000000000000000      -4.58388536535966424E-016
 dbg flux            2         229         230   5.0000000000000000       0.50000000000000000       5.32897739724896646E-016
 dbg flux            2         230         231   5.2000000000000002       0.50000000000000000       4.29815864828836973E-017
 dbg flux            2         231         232   5.4000000000000004       0.50000000000000000      -4.48133188175138682E-016
 dbg flux            2         232         233   5.5999999999999996       0.50000000000000000       5.07810795782060349E-016
 dbg flux            2         233         234   5.7999999999999998       0.50000000000000000       3.77576610159937846E-017
 dbg flux            2         234         235   6.0000000000000000       0.50000000000000000      -4.29643556255867613E-016
 dbg flux            2         235         236   6.2000000000000002       0.50000000000000000       4.78388669569951898E-016
 dbg flux            2         236         237   6.4000000000000004       0.50000000000000000       3.76275781415198806E-017
 dbg flux            2         237         238   6.5999999999999996       0.50000000000000000      -4.00673028329782136E-016
 dbg flux            2         238         239   6.7999999999999998       0.50000000000000000       4.38834341865273572E-016
 dbg flux            2         239         240   7.0000000000000000       0.50000000000000000       3.35247559873244555E-017
 dbg flux            2         240         241   7.2000000000000002       0.50000000000000000      -3.70939729361083969E-016
 dbg flux            2         241         242   7.4000000000000004       0.50000000000000000       4.04943448196144702E-016
 dbg flux            2         242         243   7.5999999999999996       0.50000000000000000       2.94047714802714117E-017
 dbg flux            2         243         244   7.7999999999999998       0.50000000000000000      -3.45184814306105859E-016
 dbg flux            2         244         245   8.0000000000000000       0.50000000000000000       3.84130167853065162E-016
 dbg flux            2         245         246   8.1999999999999993       0.50000000000000000       2.93662001624437446E-017
 dbg flux            2         246         247   8.4000000000000004       0.50000000000000000      -3.24873658007800043E-016
 dbg flux            2         247         248   8.5999999999999996       0.50000000000000000       3.70887294082351923E-016
 dbg flux            2         248         249   8.8000000000000007       0.50000000000000000       2.90239274473249684E-017
 dbg flux            2         249         250   8.9999999999900009       0.50000000000000000      -3.11021758032716588E-016
 dbg flux            2         250         251   9.1999999999900002       0.50000000000000000       3.84855750080910832E-016
 dbg flux            2         251         252   9.3999999999899995       0.50000000000000000       3.59777415804129367E-017
 dbg flux            2         252         253   9.5999999999900005       0.50000000000000000      -3.13050968015239720E-016
 dbg flux            2         253         254   9.7999999999899998       0.50000000000000000       3.83883540217417453E-016
 dbg flux            2         254         255   9.9999999999900009       0.50000000000000000       2.84811315923320469E-017
 dbg flux            2         255         256   10.199999999999999       0.50000000000000000      -3.22694757437348622E-016
 dbg flux            2         256         257   10.400000000000000       0.50000000000000000       3.85928502439548519E-016
 dbg flux            2         257         258   10.600000000000000       0.50000000000000000       3.22395824226351930E-017
 dbg flux            2         258         259   10.800000000000001       0.50000000000000000      -3.33221298306657097E-016
 dbg flux            2         259         260   11.000000000000000       0.50000000000000000       3.90384971436932264E-016
 dbg flux            2         260         261   11.199999999999999       0.50000000000000000       2.81630336291662805E-017
 dbg flux            2         261         262   11.400000000000000       0.50000000000000000      -3.15546435339062693E-016
 dbg flux            2         262         263   11.600000000000000       0.50000000000000000       3.76201635812223002E-016
 dbg flux            2         263         264   11.800000000000001       0.50000000000000000       3.56448303501442428E-017
 dbg flux            2         264         265   12.000000000000000       0.50000000000000000      -3.43075811903031443E-016
 dbg flux            2         265         266   12.199999999999999       0.50000000000000000       3.53246941591638431E-016
 dbg flux            2         266         267   12.400000000000000       0.50000000000000000       1.41856738424496802E-017
 dbg flux            2         267         268   12.600000000000000       0.50000000000000000      -2.81085661845082736E-016
 dbg flux            2         268         269   12.800000000000001       0.50000000000000000       2.72807702636296931E-016
 dbg flux            2         269         270   13.000000000000000       0.50000000000000000       3.49572459318872625E-017
 dbg flux            2         270         271   13.199999999999999       0.50000000000000000      -2.24770782331140930E-016
 dbg flux            2         271         272   13.400000000000000       0.50000000000000000       2.23931207789562244E-016
 dbg flux            2         272         273   13.600000000000000       0.50000000000000000       2.56393677995481571E-017
 dbg flux            2         273         274   13.800000000000001       0.50000000000000000      -1.84990301491403092E-016
 dbg flux            2         274         275   14.000000000000000       0.50000000000000000       1.66527912121014184E-016
 dbg flux            2         275         276   14.199999999999999       0.50000000000000000       2.98052687594906799E-017
 dbg flux            2         276         277   14.400000000000000       0.50000000000000000      -9.73691607222665948E-017
 dbg flux            2         277         278   14.600000000000000       0.50000000000000000       1.24908707416934183E-016
 dbg flux            2         278         279   14.800000000000001       0.50000000000000000       2.93589411995322512E-017
 dbg flux            2         279         280   15.000000000000000       0.50000000000000000      -5.25634332821263402E-017
 dbg flux            2         280         281   15.199999999999999       0.50000000000000000       1.09914431511522919E-016
 dbg flux            2         281         282   15.400000000000000       0.50000000000000000       2.78863572821853395E-017
 dbg flux            2         282         283   15.600000000000000       0.50000000000000000      -5.24107120047423497E-017
 dbg flux            2         283         284   15.800000000000001       0.50000000000000000       9.46613292187019423E-017
 dbg flux            2         284         285   16.000000000000000       0.50000000000000000       2.42208680956305543E-017
 dbg flux            2         285         286   16.199999999999999       0.50000000000000000      -5.71476941790985207E-017
 dbg flux            2         286         287   16.399999999999999       0.50000000000000000       1.47844293119806306E-016
 dbg flux            2         287         288   16.600000000000001       0.50000000000000000       1.82794329830765724E-017
 dbg flux            2         288         289   16.800000000000001       0.50000000000000000      -1.12992572840196333E-016
 dbg flux            2         289         290   17.000000000000000       0.50000000000000000       1.67561656176589445E-016
 dbg flux            2         290         291   17.199999999999999       0.50000000000000000       2.02439573541866940E-017
 dbg flux            2         291         292   17.399999999999999       0.50000000000000000      -1.31864108255042894E-016
 dbg flux            2         292         293   17.600000000000001       0.50000000000000000       1.56448387912061940E-016
 dbg flux            2         293         294   17.800000000000001       0.50000000000000000       6.86158726779637328E-018
 dbg flux            2         294         295   18.000000000000000       0.50000000000000000      -1.48255730589987811E-016
 dbg flux            2         295         296   18.199999999999999       0.50000000000000000       1.38045690511225556E-016
 dbg flux            2         296         297   18.399999999999999       0.50000000000000000       4.66975048023102173E-017
 dbg flux            2         297         298   18.600000000000001       0.50000000000000000       3.69883817884624099E-018
 dbg flux            2         298         299   18.800000000000001       0.50000000000000000       8.94432403437259295E-019
 dbg flux            2         299         300   19.000000000000000       0.50000000000000000      -1.27878127775422217E-016
 dbg flux            2         300         301   19.199999999999999       0.50000000000000000      -1.48582724337924585E-018
 dbg flux            2         301         302   19.399999999999999       0.50000000000000000      -4.84106488873949024E-019
 dbg flux            2         302         303   19.600000000000001       0.50000000000000000      -4.72270846934387977E-017
 dbg flux            2         303         304   19.800000000000001       0.49999999999900002       3.77370829223200022E-018
FluxSolver:  Solution Time:   5.49800395965576172E-002
FluxSolver:  Result Norm:   4.00002280840311560E-004
ComputeChange: SS (NRM,RELC): (  0.302141636677E-15   2.00000000000     ) :: computeflux
: *** Elmer Solver: ALL DONE ***
SOLVER TOTAL TIME(CPU,REAL):         0.16        0.75
ELMER SOLVER FINISHED AT: 2010/07/18 19:27:28
dbg self.physicalBodyNames {'domain': [3, []], 'inlet': [1, []], 'outlet': [2, []]}
 ?  array (204,10) , type = l, has 2040 elements
 element array 204 204
303
['domain', 'inlet', 'outlet']
 self.elementArray  204 [  1,  1,  3,  2,  2,  0,  2,104,  0,  0,]
 self.elementArray  204 [  1,  1,  3,  2,  2,  0,  2,104,  0,  0,]
 script inletBoundary  inlet
 self.elementArray  204 [  1,  1,  3,  2,  2,  0,  2,104,  0,  0,]
 script outletBoundary  outlet
Tensor value 0.0001 <PhysicalUnit HydraulicConductivity>
key porosity <type 'str'>
prop <PhysicalProperties.Porosity instance at 0x8bdbaac> ['__doc__', '__init__', '__module__', 'checkValue', 'getDefaultUnit', 'getUnit', 'getValue', 'setValue', 'unit', 'value']
dbg property porosity PhysicalProperties.Porosity
setproperty propClass is ok 
dbg material key porosity p   orosity
key hydraulicconductivity <type 'str'>
prop <tensors.IsotropicTensor instance at 0x8bdbacc> HydraulicConductivity ['__abs__', '__add__', '__cmp__', '__div__', '__doc__', '__init__', '__module__', '__mul__', '__neg__', '__nonzero__', '__pos__', '__pow__', '__radd__', '__rdiv__', '__repr__', '__rmul__', '__rpow__', '__rsub__', '__str__', '__sub__', '_number', '_sum', 'convertToUnit', 'cos', 'getUnit', 'getUnitName', 'getValue', 'inBaseUnits', 'inUnitsOf', 'isCompatible', 'setValue', 'sin', 'sqrt', 'tan', 'unit', 'value', 'verifyValue']
dbg property hydraulicconductivity PhysicalProperties.HydraulicConductivity
setproperty propClass is ok 
dbg material key hydraulicConductivity h   ydraulicConductivity
 we are here 
b <commonmodel.Region instance at 0x8bdbaec>
k Dirichlet
v 100.0 Head
[Head(100.0,'Head')]
 item  <type 'list'>
b <commonmodel.Region instance at 0x8bdbb2c>
k Dirichlet
v 20.0 Head
[Head(20.0,'Head')]
 item  <type 'list'>
dbg CommonInitialCondition 1.0 Head
verifyClass commonmodel.Region
verifyClass commonmodel.Region
verifyClass commonmodel.Region
[0.0, 9.8100000000000005, 0.0]
saturated
['__doc__', '__init__', '__module__', 'boundary', 'getBoundary', 'getRegion', 'getSupport', 'getType', 'getValue', 'saturationCheck', 'type', 'value_property', 'value_species']
 the flow component has been set
 debug eh setBoundaryConditions {0: {'boundaryName': 'inlet', 'head': 100.0, 'material': <material.Material instance at 0x8bdba6c>, 'typ': 'Dirichlet'}, 1: {'boundaryName': 'outlet', 'head': 20.0, 'material': <material.Material instance at 0x8bdba6c>, 'typ': 'Dirichlet'}}
 debug eh setinitialConditions {'domain': {'head': 1.0, 'material': <material.Material instance at 0x8bdba6c>}}
[0.0, 9.8100000000000005, 0.0]
 initial  ['domain']
{'domain': {'head': 1.0, 'material': <material.Material instance at 0x8bdba6c>}}
domain <type 'str'>
inlet <type 'str'>
outlet <type 'str'>
 arg  100.0 20.0 80.0
 
~~~~~~
Head :
~~~~~~
test on headings  : OK, the results are better than  : 0.001 %
~~~~~~~~~~~
Velocities:
~~~~~~~~~~~
tests for the two components of the velocity  : OK the results are better than  : 0.001 %

 
 ~~~~~~~~~~~~~~~~~~~ Test case is ok ~~~~~~~~~~~~~~~

