Check Keywords Warn

Header
Mesh DB "." "SDarcy2d"
Include Path "."
Results Directory ""
End

Simulation
  Coordinate System = "Cartesian 3D"

  Simulation Type = "Transient"
  Coordinate Mapping(3) = 1 2 3
  Timestepping Method = BDF
  BDF Order = 1
  Solver Input File = htest.sif
  Timestep Sizes = 100.0
  Timestep Intervals = 20
End

! ~~
! Constants
! ~~
Constants
 Gravity(4) = 0 -1 0 9.780000e+00
End

! ~~
! Body
! ~~
Body 1
  Name = "body1"
  Equation = 1
  Material = 1
End

Body 2
  Equation = 1 
  Material = 2
  Initial Condition = 2
  Body Force = 1
End

! ~~
! Material p29 ref. Manual
! ~~
Material 2
  Water Density = Real 1.0000000000e+00
  Viscosity = Real 1.0000000000e+00
  Hydr Conductivity = Real 1.0000000000e-05
  Saturated Hydraulic Conductivity = Real 1.0000000000e-05
  Specific Storage = Real 1.0000000000e+00
  Porosity = Real 1.0000000000e+00
  Compressibility Model = Incompressible
End

Material 1
  Water Density = Real 1.0000000000e+00
  Viscosity = Real 1.0000000000e+00
  Hydr Conductivity = Real 1.0000000000e-05
  Saturated Hydraulic Conductivity = Real 1.0000000000e-05
  Specific Storage = Real 1.0000000000e+00
  Porosity = Real 1.0000000000e+00
  Compressibility Model = Incompressible
End

! ~~
! Equation p28 ref. Manual
! ~~

Equation 1
  Active Solvers(2) = 1 2
End

! ~~
! Solver p27 ref. Manual
! ~~
Solver 1
  Exec Solver = "Always"
  Equation = "Darcy Equation"
  Procedure = "SaturatedDarcyTimeStep" "SaturatedDarcyTimeStepSolver"
  Variable = "Charge"
  Variable Dofs = 1
  Linear System Solver = "Iterative"
  Linear System Iterative Method = "BiCGStab"
  Linear System Max Iterations = 500
  Linear System Convergence Tolerance = 1.000000e-11
  Linear System Preconditioning = "ILU0"
  Steady State Convergence Tolerance = 1e-08
  Stabilize = True
  Namespace = string "charge"
End

Solver 2
  Equation = ComputeFlux
  Procedure = "DFluxSolver" "DFluxSolver"
  Flux Variable = String "Charge"
  Flux Coefficient = String "Hydr Conductivity"
  Flux Coefficient = String "Saturated Hydraulic Conductivity"
  Linear System Convergence Tolerance = 5.000000e-01
End

! ~~
! Material p29 ref. Manual
! ~~
! AB
Boundary Condition 101
  Target Boundaries (1) = 1
! charge
  Charge = Real 1.000000e+00
 End

! ~~
! initial condition p8 ref. ElmersolverManual
! ~~
Initial Condition 2
  Charge = Real 0.000000e+00
End
