Check Keywords Warn 

Header
Mesh DB "." "Alkaline"
End

Simulation
  Coordinate System = Cartesian 2D

  Simulation Type = transient
  Coordinate Mapping(3) = 1 2 3
  Timestepping Method = BDF
  BDF Order = 2

  Timestep Sizes = 1000
  Timestep Intervals = 864

  Output Intervals(1) = 5
!  Lumped Mass Matrix = False
  Max Output Level = 3
End

! ~~
! Constants
! ~~
Constants
  Gravity(4) = 0 -1 0 9.780000e+00
End

! ~~
! Body
! ~~
Body 1
  Equation = 1
  Material = 101
End

Body 2
  Equation = 1
  Material = 101
End

Body 3
  Equation = 1
  Material = 101
  Initial Condition = 1
End

! ~~
! Material p29 ref. Manual
! ~~
Material 101
 Density = Real 1.0000000000e+00
 Compressibility Model = Incompressible
 Na Diffusivity = Real 3.0000000000e-10

 Convection Velocity 1 = 0.000000e+00
 Convection Velocity 2 = 0.000000e+00
 Convection Velocity 3 = 0.000000e+00

End

! ~~
! Equation p28 ref. Manual
! ~~

Equation 1
  Active Solvers(1) = 1 
  Concentration Units = Absolute Mass
End

! ~~
! Solver p27 ref. Manual
! ~~
Solver 1
  Equation = Advection Diffusion
  Variable = Na
  Variable DOFs = 1

  Procedure = "AdvectionDiffusionTimeStep" "AdvectionDiffusionTimeStepSolver"
  Linear System Solver = Iterative
  Linear System Iterative Method = BiCGStab
  Linear System Max Iterations = 200
  Linear System Convergence Tolerance = 1.000000e-08
  Linear System Preconditioning = ILU1
  Linear System ILUT Tolerance = 1.000000e-08
  Linear System Symmetric = True
  Linear System Direct Method = Direct
!  Lumped Mass Matrix = False
!  Stabilize False
!  Bubbles False
End
Solver 2
  Procedure = "ResultOutputSolve" "ResultOutputSolver"
  Output File Name = "case"
  Output Format = String VTK
  Scalar Field 1 = String Na
End


! ~~
! Material p29 ref. Manual
! ~~
Boundary Condition 101
  Target Boundaries (1) = 1
  NA = Real 2.000001e-02
End

Boundary Condition 201
  Target Boundaries (1) = 2
  NA = Real 0.000000e+00
End

! ~~
! initial condition p8 ref. ElmersolverManual
! ~~
Initial Condition 1
  NA = Real 0.000000e+00
End
